7gp3-a
     RDKit          3D

 15 16  0  0  0  0  0  0  0  0999 V2000
   -6.1640  -28.2850   15.0850 N   0  0  0  0  0  0  0  0  0  0  0  0
   -7.6530  -27.8600   13.2390 C   0  0  0  0  0  0  0  0  0  0  0  0
   -9.0590  -27.8630   12.6910 C   0  0  0  0  0  0  0  0  0  0  0  0
   -9.5830  -25.4690   12.5200 C   0  0  0  0  0  0  0  0  0  0  0  0
  -10.2420  -24.3110   13.2190 C   0  0  0  0  0  0  0  0  0  0  0  0
  -11.2240  -23.5390   12.3610 C   0  0  0  0  0  0  0  0  0  0  0  0
   -9.3870  -23.0490   13.4390 C   0  0  0  0  0  0  0  0  0  0  0  0
   -9.8150  -26.6720   13.0540 N   0  0  0  0  0  0  0  0  0  0  0  0
   -3.8130  -27.6370   15.0640 C   0  0  0  0  0  0  0  0  0  0  0  0
   -8.9020  -25.3050   11.5040 O   0  0  0  0  0  0  0  0  0  0  0  0
   -5.1400  -27.7630   14.3780 C   0  0  0  0  0  0  0  0  0  0  0  0
   -7.3790  -28.3280   14.5110 C   0  0  0  0  0  0  0  0  0  0  0  0
   -5.3280  -27.3040   13.0740 C   0  0  0  0  0  0  0  0  0  0  0  0
   -6.5910  -27.3510   12.5170 C   0  0  0  0  0  0  0  0  0  0  0  0
  -10.4070  -22.2490   12.6440 C   0  0  0  0  0  0  0  0  0  0  0  0
  6 15  1  0
  6  5  1  0
 15  7  1  0
  5  7  1  0
  5  4  1  0
  9 11  1  0
  4 10  2  0
  4  8  1  0
  1 11  2  0
  1 12  1  0
 11 13  1  0
 12  2  2  0
  8  3  1  0
 13 14  2  0
  2 14  1  0
  2  3  1  0
M  END
>  <id>  (1) 
1

>  <inchikey>  (1) 
SQKAEGRLXBUQKF-UHFFFAOYSA-N

>  <alias>  (1) 
7gp3-a

>  <smiles>  (1) 
Cc1ccc(CNC(=O)C2CCC2)cn1

>  <path>  (1) 
/opt/xchem-fragalysis-2/maxwin/BulkDock/TARGETS/D68EV3C/aligned_files/7gp3-a/7gp3-a.pdb

>  <distance_score>  (1) 
None

>  <energy_score>  (1) 
None

>  <compound>  (1) 
SQKAEGRLXBUQKF-UHFFFAOYSA-N

>  <compound_id>  (1) 
1

>  <target>  (1) 
D68EV3C

>  <tags>  (1) 
['BAD count', '[Other] upload_1 2025-02-11', 'hits', 'MEDIOCRE count', 'Main status', 'GOOD count']

>  <inspirations>  (1) 
None

>  <subsites>  (1) 
None

>  <reference>  (1) 


>  <observation_longname>  (1) 
7gp3_A_201_v1

>  <ConformerSites alias>  (1) 
4a - 7gp7/A/201

>  <CanonSites alias>  (1) 
4 - 7gp7/A/201/1

>  <CrystalformSites alias>  (1) 
F2q - 7gp7/A/201/1

>  <Quatassemblies alias>  (1) 
A1 - monomer

>  <Crystalforms alias>  (1) 
F2 - EVD68_Reference_20230131

>  <ConformerSites upload name>  (1) 
4a - 7gp7/A/201

>  <CanonSites upload name>  (1) 
4 - 7gp7/A/201/1

>  <CrystalformSites upload name>  (1) 
F2q - 7gp7/A/201/1

>  <Quatassemblies upload name>  (1) 
A1 - monomer

>  <Crystalforms upload name>  (1) 
F2 - EVD68_Reference_20230131

>  <ConformerSites short tag>  (1) 
4a - 7gp7/A/201

>  <CanonSites short tag>  (1) 
4 - 7gp7/A/201/1

>  <CrystalformSites short tag>  (1) 
F2q - 7gp7/A/201/1

>  <Quatassemblies short tag>  (1) 
A1 - monomer

>  <Crystalforms short tag>  (1) 
F2 - EVD68_Reference_20230131

>  <Centroid res>  (1) 
7gp7/A/6/A_v1

>  <Experiment code>  (1) 
7gp3

>  <Pose>  (1) 
7gp3-a

$$$$
7gqr-a
     RDKit          3D

 10 11  0  0  0  0  0  0  0  0999 V2000
   -8.4610  -22.1780   10.4930 C   0  0  0  0  0  0  0  0  0  0  0  0
   -8.5570  -23.1280    9.4890 C   0  0  0  0  0  0  0  0  0  0  0  0
   -8.8710  -22.6860    8.2220 C   0  0  0  0  0  0  0  0  0  0  0  0
   -9.3090  -21.2250    6.5470 N   0  0  0  0  0  0  0  0  0  0  0  0
   -9.1430  -22.4380    6.1290 C   0  0  0  0  0  0  0  0  0  0  0  0
   -8.8980  -23.4120    7.0430 O   0  0  0  0  0  0  0  0  0  0  0  0
   -9.1170  -21.3600    7.9250 C   0  0  0  0  0  0  0  0  0  0  0  0
   -9.0140  -20.4090    8.9360 C   0  0  0  0  0  0  0  0  0  0  0  0
   -8.6880  -20.8360   10.2220 C   0  0  0  0  0  0  0  0  0  0  0  0
   -9.0590  -22.9390    4.7000 Cl  0  0  0  0  0  0  0  0  0  0  0  0
 10  5  1  0
  4  5  2  0
  4  7  1  0
  5  6  1  0
  7  8  2  0
  7  3  1  0
  8  9  1  0
  6  3  1  0
  3  2  2  0
  9  1  2  0
  2  1  1  0
M  END
>  <id>  (2) 
2

>  <inchikey>  (2) 
BBVQDWDBTWSGHQ-UHFFFAOYSA-N

>  <alias>  (2) 
7gqr-a

>  <smiles>  (2) 
Clc1nc2ccccc2o1

>  <path>  (2) 
/opt/xchem-fragalysis-2/maxwin/BulkDock/TARGETS/D68EV3C/aligned_files/7gqr-a/7gqr-a.pdb

>  <distance_score>  (2) 
None

>  <energy_score>  (2) 
None

>  <compound>  (2) 
BBVQDWDBTWSGHQ-UHFFFAOYSA-N

>  <compound_id>  (2) 
2

>  <target>  (2) 
D68EV3C

>  <tags>  (2) 
['BAD count', '[Other] upload_1 2025-02-11', 'hits', 'MEDIOCRE count', 'Main status', 'GOOD count']

>  <inspirations>  (2) 
None

>  <subsites>  (2) 
None

>  <reference>  (2) 


>  <observation_longname>  (2) 
7gqr_B_201_v1

>  <ConformerSites alias>  (2) 
30a - 7gqr/B/201

>  <CanonSites alias>  (2) 
30 - 7gqr/B/201/1

>  <CrystalformSites alias>  (2) 
F2ba - 7gqr/B/201/1

>  <Quatassemblies alias>  (2) 
A1 - monomer

>  <Crystalforms alias>  (2) 
F2 - EVD68_Reference_20230131

>  <ConformerSites upload name>  (2) 
30a - 7gqr/B/201

>  <CanonSites upload name>  (2) 
30 - 7gqr/B/201/1

>  <CrystalformSites upload name>  (2) 
F2ba - 7gqr/B/201/1

>  <Quatassemblies upload name>  (2) 
A1 - monomer

>  <Crystalforms upload name>  (2) 
F2 - EVD68_Reference_20230131

>  <ConformerSites short tag>  (2) 
30a - 7gqr/B/201

>  <CanonSites short tag>  (2) 
30 - 7gqr/B/201/1

>  <CrystalformSites short tag>  (2) 
F2ba - 7gqr/B/201/1

>  <Quatassemblies short tag>  (2) 
A1 - monomer

>  <Crystalforms short tag>  (2) 
F2 - EVD68_Reference_20230131

>  <Centroid res>  (2) 
7gqr/B/10/B_v1

>  <Experiment code>  (2) 
7gqr

>  <Pose>  (2) 
7gqr-a

$$$$
7gp4-a
     RDKit          3D

 14 15  0  0  0  0  0  0  0  0999 V2000
  -11.6460  -22.6860   27.8960 N   0  0  0  0  0  0  0  0  0  0  0  0
   -9.4250  -22.0380   33.8420 C   0  0  0  0  0  0  0  0  0  0  0  0
  -10.3970  -21.1370   33.4820 C   0  0  0  0  0  0  0  0  0  0  0  0
  -10.8580  -21.0900   32.1790 C   0  0  0  0  0  0  0  0  0  0  0  0
  -12.2610  -23.6570   26.9870 C   0  0  0  0  0  0  0  0  0  0  0  0
  -12.4820  -22.8630   25.7140 C   0  0  0  0  0  0  0  0  0  0  0  0
  -11.6420  -21.3430   27.3150 C   0  0  0  0  0  0  0  0  0  0  0  0
  -10.8260  -21.9150   29.9050 N   0  0  0  0  0  0  0  0  0  0  0  0
  -11.1730  -22.9790   29.1370 C   0  0  0  0  0  0  0  0  0  0  0  0
  -11.0760  -24.1310   29.5260 O   0  0  0  0  0  0  0  0  0  0  0  0
  -10.3410  -21.9590   31.2270 C   0  0  0  0  0  0  0  0  0  0  0  0
   -9.3570  -22.8650   31.5950 C   0  0  0  0  0  0  0  0  0  0  0  0
   -8.9040  -22.8970   32.8990 C   0  0  0  0  0  0  0  0  0  0  0  0
  -12.5840  -21.4590   26.1420 C   0  0  0  0  0  0  0  0  0  0  0  0
 14  6  1  0
 14  7  1  0
  6  5  1  0
  7  1  1  0
  5  1  1  0
  1  9  1  0
  8  9  1  0
  8 11  1  0
  9 10  2  0
 11 12  2  0
 11  4  1  0
 12 13  1  0
  4  3  2  0
 13  2  2  0
  3  2  1  0
M  END
>  <id>  (3) 
3

>  <inchikey>  (3) 
NTBKXPQLQPBJJL-UHFFFAOYSA-N

>  <alias>  (3) 
7gp4-a

>  <smiles>  (3) 
O=C(Nc1ccccc1)N1CCCC1

>  <path>  (3) 
/opt/xchem-fragalysis-2/maxwin/BulkDock/TARGETS/D68EV3C/aligned_files/7gp4-a/7gp4-a.pdb

>  <distance_score>  (3) 
None

>  <energy_score>  (3) 
None

>  <compound>  (3) 
NTBKXPQLQPBJJL-UHFFFAOYSA-N

>  <compound_id>  (3) 
3

>  <target>  (3) 
D68EV3C

>  <tags>  (3) 
['BAD count', '[Other] upload_1 2025-02-11', 'hits', 'MEDIOCRE count', 'Main status', 'GOOD count']

>  <inspirations>  (3) 
None

>  <subsites>  (3) 
None

>  <reference>  (3) 


>  <observation_longname>  (3) 
7gp4_A_201_v1

>  <ConformerSites alias>  (3) 
4a - 7gp7/A/201

>  <CanonSites alias>  (3) 
4 - 7gp7/A/201/1

>  <CrystalformSites alias>  (3) 
F2p - 7gp4/A/201/1

>  <Quatassemblies alias>  (3) 
A1 - monomer

>  <Crystalforms alias>  (3) 
F2 - EVD68_Reference_20230131

>  <ConformerSites upload name>  (3) 
4a - 7gp7/A/201

>  <CanonSites upload name>  (3) 
4 - 7gp7/A/201/1

>  <CrystalformSites upload name>  (3) 
F2p - 7gp4/A/201/1

>  <Quatassemblies upload name>  (3) 
A1 - monomer

>  <Crystalforms upload name>  (3) 
F2 - EVD68_Reference_20230131

>  <ConformerSites short tag>  (3) 
4a - 7gp7/A/201

>  <CanonSites short tag>  (3) 
4 - 7gp7/A/201/1

>  <CrystalformSites short tag>  (3) 
F2p - 7gp4/A/201/1

>  <Quatassemblies short tag>  (3) 
A1 - monomer

>  <Crystalforms short tag>  (3) 
F2 - EVD68_Reference_20230131

>  <Centroid res>  (3) 
7gp7/A/6/A_v1

>  <Experiment code>  (3) 
7gp4

>  <Pose>  (3) 
7gp4-a

$$$$
7gqb-a
     RDKit          3D

 14 15  0  0  0  0  0  0  0  0999 V2000
   14.5940    0.6870   14.6740 N   0  0  0  0  0  0  0  0  0  0  0  0
   13.9280   -0.3850   13.9130 C   0  0  0  0  0  0  0  0  0  0  0  0
   13.4250   -1.5090   14.8120 C   0  0  0  0  0  0  0  0  0  0  0  0
   14.7540   -0.8250   12.7090 C   0  0  0  0  0  0  0  0  0  0  0  0
   15.2730   -2.1100   12.5990 C   0  0  0  0  0  0  0  0  0  0  0  0
   16.0000   -2.4850   11.4840 C   0  0  0  0  0  0  0  0  0  0  0  0
   16.2280   -1.5840   10.4690 C   0  0  0  0  0  0  0  0  0  0  0  0
   15.7180   -0.3090   10.5600 C   0  0  0  0  0  0  0  0  0  0  0  0
   14.9800    0.0690   11.6690 C   0  0  0  0  0  0  0  0  0  0  0  0
   12.1930   -2.0990   14.5710 C   0  0  0  0  0  0  0  0  0  0  0  0
   11.7290   -3.1240   15.3790 C   0  0  0  0  0  0  0  0  0  0  0  0
   12.4840   -3.5690   16.4360 C   0  0  0  0  0  0  0  0  0  0  0  0
   13.7100   -2.9880   16.6950 C   0  0  0  0  0  0  0  0  0  0  0  0
   14.1810   -1.9680   15.8850 C   0  0  0  0  0  0  0  0  0  0  0  0
 11 12  1  0
 11 10  2  0
 12 13  2  0
 10  3  1  0
 13 14  1  0
  7  6  1  0
  7  8  2  0
  6  5  2  0
  8  9  1  0
  3 14  2  0
  3  2  1  0
  5  4  1  0
  9  4  2  0
  4  2  1  0
  2  1  1  0
M  END
>  <id>  (4) 
4

>  <inchikey>  (4) 
MGHPNCMVUAKAIE-UHFFFAOYSA-N

>  <alias>  (4) 
7gqb-a

>  <smiles>  (4) 
NC(c1ccccc1)c1ccccc1

>  <path>  (4) 
/opt/xchem-fragalysis-2/maxwin/BulkDock/TARGETS/D68EV3C/aligned_files/7gqb-a/7gqb-a.pdb

>  <distance_score>  (4) 
None

>  <energy_score>  (4) 
None

>  <compound>  (4) 
MGHPNCMVUAKAIE-UHFFFAOYSA-N

>  <compound_id>  (4) 
4

>  <target>  (4) 
D68EV3C

>  <tags>  (4) 
['BAD count', '[Other] upload_1 2025-02-11', 'hits', 'MEDIOCRE count', 'Main status', 'GOOD count']

>  <inspirations>  (4) 
None

>  <subsites>  (4) 
None

>  <reference>  (4) 


>  <observation_longname>  (4) 
7gqb_B_201_v1

>  <ConformerSites alias>  (4) 
2a - 7gon/B/201

>  <CanonSites alias>  (4) 
2 - 7gon/B/201/1

>  <CrystalformSites alias>  (4) 
F2j - 7gqb/B/201/1

>  <Quatassemblies alias>  (4) 
A1 - monomer

>  <Crystalforms alias>  (4) 
F2 - EVD68_Reference_20230131

>  <ConformerSites upload name>  (4) 
2a - 7gon/B/201

>  <CanonSites upload name>  (4) 
2 - 7gon/B/201/1

>  <CrystalformSites upload name>  (4) 
F2j - 7gqb/B/201/1

>  <Quatassemblies upload name>  (4) 
A1 - monomer

>  <Crystalforms upload name>  (4) 
F2 - EVD68_Reference_20230131

>  <ConformerSites short tag>  (4) 
2a - 7gon/B/201

>  <CanonSites short tag>  (4) 
2 - 7gon/B/201/1

>  <CrystalformSites short tag>  (4) 
F2j - 7gqb/B/201/1

>  <Quatassemblies short tag>  (4) 
A1 - monomer

>  <Crystalforms short tag>  (4) 
F2 - EVD68_Reference_20230131

>  <Centroid res>  (4) 
7gon/B/47/B_v1

>  <Experiment code>  (4) 
7gqb

>  <Pose>  (4) 
7gqb-a

$$$$
7gp5-a
     RDKit          3D

 13 14  0  0  0  0  0  0  0  0999 V2000
   12.7440    0.7180   16.1060 N   0  0  0  0  0  0  0  0  0  0  0  0
   12.5900   -0.7050   16.0350 C   0  0  0  0  0  0  0  0  0  0  0  0
   11.6540   -1.2720   15.1690 C   0  0  0  0  0  0  0  0  0  0  0  0
   11.4900   -2.6490   15.1410 C   0  0  0  0  0  0  0  0  0  0  0  0
   12.2530   -3.4600   15.9570 C   0  0  0  0  0  0  0  0  0  0  0  0
   13.1920   -2.9000   16.8020 C   0  0  0  0  0  0  0  0  0  0  0  0
   10.6750    1.5410   15.4560 O   0  0  0  0  0  0  0  0  0  0  0  0
   11.8240    1.7130   15.8270 C   0  0  0  0  0  0  0  0  0  0  0  0
   12.5200    3.0260   16.0650 C   0  0  0  0  0  0  0  0  0  0  0  0
   13.8690    2.5190   16.4530 C   0  0  0  0  0  0  0  0  0  0  0  0
   15.0370    3.4060   16.7340 C   0  0  0  0  0  0  0  0  0  0  0  0
   13.9670    1.2450   16.4870 N   0  0  0  0  0  0  0  0  0  0  0  0
   13.3680   -1.5270   16.8470 C   0  0  0  0  0  0  0  0  0  0  0  0
 11 10  1  0
 10  9  1  0
 10 12  2  0
  9  8  1  0
 12  1  1  0
  8  1  1  0
  8  7  2  0
  1  2  1  0
  2 13  1  0
  2  3  2  0
 13  6  2  0
  3  4  1  0
  6  5  1  0
  4  5  2  0
M  END
>  <id>  (5) 
5

>  <inchikey>  (5) 
QELUYTUMUWHWMC-UHFFFAOYSA-N

>  <alias>  (5) 
7gp5-a

>  <smiles>  (5) 
CC1=NN(c2ccccc2)C(=O)C1

>  <path>  (5) 
/opt/xchem-fragalysis-2/maxwin/BulkDock/TARGETS/D68EV3C/aligned_files/7gp5-a/7gp5-a.pdb

>  <distance_score>  (5) 
None

>  <energy_score>  (5) 
None

>  <compound>  (5) 
QELUYTUMUWHWMC-UHFFFAOYSA-N

>  <compound_id>  (5) 
5

>  <target>  (5) 
D68EV3C

>  <tags>  (5) 
['BAD count', '[Other] upload_1 2025-02-11', 'hits', 'MEDIOCRE count', 'Main status', 'GOOD count']

>  <inspirations>  (5) 
None

>  <subsites>  (5) 
None

>  <reference>  (5) 


>  <observation_longname>  (5) 
7gp5_B_201_v1

>  <ConformerSites alias>  (5) 
2a - 7gon/B/201

>  <CanonSites alias>  (5) 
2 - 7gon/B/201/1

>  <CrystalformSites alias>  (5) 
F2j - 7gqb/B/201/1

>  <Quatassemblies alias>  (5) 
A1 - monomer

>  <Crystalforms alias>  (5) 
F2 - EVD68_Reference_20230131

>  <ConformerSites upload name>  (5) 
2a - 7gon/B/201

>  <CanonSites upload name>  (5) 
2 - 7gon/B/201/1

>  <CrystalformSites upload name>  (5) 
F2j - 7gqb/B/201/1

>  <Quatassemblies upload name>  (5) 
A1 - monomer

>  <Crystalforms upload name>  (5) 
F2 - EVD68_Reference_20230131

>  <ConformerSites short tag>  (5) 
2a - 7gon/B/201

>  <CanonSites short tag>  (5) 
2 - 7gon/B/201/1

>  <CrystalformSites short tag>  (5) 
F2j - 7gqb/B/201/1

>  <Quatassemblies short tag>  (5) 
A1 - monomer

>  <Crystalforms short tag>  (5) 
F2 - EVD68_Reference_20230131

>  <Centroid res>  (5) 
7gon/B/47/B_v1

>  <Experiment code>  (5) 
7gp5

>  <Pose>  (5) 
7gp5-a

$$$$
7gon-a
     RDKit          3D

 14 14  0  0  0  0  0  0  0  0999 V2000
   13.2370   -1.8480   16.4930 C   0  0  0  0  0  0  0  0  0  0  0  0
   13.5690   -2.9930   17.1940 C   0  0  0  0  0  0  0  0  0  0  0  0
   12.8490   -4.1530   16.9670 C   0  0  0  0  0  0  0  0  0  0  0  0
   11.8260   -4.1780   16.0370 C   0  0  0  0  0  0  0  0  0  0  0  0
   11.5470   -3.0280   15.3570 C   0  0  0  0  0  0  0  0  0  0  0  0
   14.0840    2.2710   15.2910 N   0  0  0  0  0  0  0  0  0  0  0  0
   14.4980    3.1140   16.4140 C   0  0  0  0  0  0  0  0  0  0  0  0
   12.6310    0.7880   14.4470 O   0  0  0  0  0  0  0  0  0  0  0  0
   14.6290    2.6720   13.9930 C   0  0  0  0  0  0  0  0  0  0  0  0
   13.2640    1.2090   15.4040 C   0  0  0  0  0  0  0  0  0  0  0  0
   13.1180    0.5120   16.7480 C   0  0  0  0  0  0  0  0  0  0  0  0
   12.2140   -1.8520   15.5550 C   0  0  0  0  0  0  0  0  0  0  0  0
   10.5720   -3.0480   14.4180 F   0  0  0  0  0  0  0  0  0  0  0  0
   13.8970   -0.6780   16.7550 O   0  0  0  0  0  0  0  0  0  0  0  0
  9  6  1  0
  6  7  1  0
  6 10  1  0
  8 10  2  0
 10 11  1  0
 11 14  1  0
 14  1  1  0
 12  1  2  0
 12  5  1  0
  1  2  1  0
 13  5  1  0
  5  4  2  0
  2  3  2  0
  4  3  1  0
M  END
>  <id>  (6) 
6

>  <inchikey>  (6) 
CEYGCTDHMLPHQC-UHFFFAOYSA-N

>  <alias>  (6) 
7gon-a

>  <smiles>  (6) 
CN(C)C(=O)COc1cccc(F)c1

>  <path>  (6) 
/opt/xchem-fragalysis-2/maxwin/BulkDock/TARGETS/D68EV3C/aligned_files/7gon-a/7gon-a.pdb

>  <distance_score>  (6) 
None

>  <energy_score>  (6) 
None

>  <compound>  (6) 
CEYGCTDHMLPHQC-UHFFFAOYSA-N

>  <compound_id>  (6) 
6

>  <target>  (6) 
D68EV3C

>  <tags>  (6) 
['BAD count', '[Other] upload_1 2025-02-11', 'hits', 'MEDIOCRE count', 'Main status', 'GOOD count']

>  <inspirations>  (6) 
None

>  <subsites>  (6) 
None

>  <reference>  (6) 


>  <observation_longname>  (6) 
7gon_B_201_v1

>  <ConformerSites alias>  (6) 
2a - 7gon/B/201

>  <CanonSites alias>  (6) 
2 - 7gon/B/201/1

>  <CrystalformSites alias>  (6) 
F2j - 7gqb/B/201/1

>  <Quatassemblies alias>  (6) 
A1 - monomer

>  <Crystalforms alias>  (6) 
F2 - EVD68_Reference_20230131

>  <ConformerSites upload name>  (6) 
2a - 7gon/B/201

>  <CanonSites upload name>  (6) 
2 - 7gon/B/201/1

>  <CrystalformSites upload name>  (6) 
F2j - 7gqb/B/201/1

>  <Quatassemblies upload name>  (6) 
A1 - monomer

>  <Crystalforms upload name>  (6) 
F2 - EVD68_Reference_20230131

>  <ConformerSites short tag>  (6) 
2a - 7gon/B/201

>  <CanonSites short tag>  (6) 
2 - 7gon/B/201/1

>  <CrystalformSites short tag>  (6) 
F2j - 7gqb/B/201/1

>  <Quatassemblies short tag>  (6) 
A1 - monomer

>  <Crystalforms short tag>  (6) 
F2 - EVD68_Reference_20230131

>  <Centroid res>  (6) 
7gon/B/47/B_v1

>  <Experiment code>  (6) 
7gon

>  <Pose>  (6) 
7gon-a

$$$$
7gpz-a
     RDKit          3D

 10 10  0  0  0  0  0  0  0  0999 V2000
  -10.8260   -1.4520   36.4120 N   0  0  0  0  0  0  0  0  0  0  0  0
  -15.0340   -4.7490   38.7320 C   0  0  0  0  0  0  0  0  0  0  0  0
  -10.9560   -0.1570   36.6490 C   0  0  0  0  0  0  0  0  0  0  0  0
  -11.9460   -2.0080   36.9380 N   0  0  0  0  0  0  0  0  0  0  0  0
  -12.1470    0.1050   37.3200 C   0  0  0  0  0  0  0  0  0  0  0  0
  -13.8810   -3.9640   38.4520 O   0  0  0  0  0  0  0  0  0  0  0  0
  -12.7570   -1.0970   37.4920 C   0  0  0  0  0  0  0  0  0  0  0  0
  -12.1600   -3.4510   36.8670 C   0  0  0  0  0  0  0  0  0  0  0  0
  -13.6170   -3.8170   37.0610 C   0  0  0  0  0  0  0  0  0  0  0  0
  -12.8130    1.7670   37.8920 Br  0  0  0  0  0  0  0  0  0  0  0  0
  2  6  1  0
  6  9  1  0
  3  1  2  0
  3  5  1  0
  1  4  1  0
  5 10  1  0
  5  7  2  0
  9  8  1  0
  4  7  1  0
  4  8  1  0
M  END
>  <id>  (7) 
7

>  <inchikey>  (7) 
SJIMZWZHTDHXRI-UHFFFAOYSA-N

>  <alias>  (7) 
7gpz-a

>  <smiles>  (7) 
COCCn1cc(Br)cn1

>  <path>  (7) 
/opt/xchem-fragalysis-2/maxwin/BulkDock/TARGETS/D68EV3C/aligned_files/7gpz-a/7gpz-a.pdb

>  <distance_score>  (7) 
None

>  <energy_score>  (7) 
None

>  <compound>  (7) 
SJIMZWZHTDHXRI-UHFFFAOYSA-N

>  <compound_id>  (7) 
7

>  <target>  (7) 
D68EV3C

>  <tags>  (7) 
['BAD count', '[Other] upload_1 2025-02-11', 'hits', 'MEDIOCRE count', 'Main status', 'GOOD count']

>  <inspirations>  (7) 
None

>  <subsites>  (7) 
None

>  <reference>  (7) 


>  <observation_longname>  (7) 
7gpz_B_201_v1

>  <ConformerSites alias>  (7) 
24a - 7gpz/B/201

>  <CanonSites alias>  (7) 
24 - 7gpz/B/201/1

>  <CrystalformSites alias>  (7) 
F2au - 7gpz/B/201/1

>  <Quatassemblies alias>  (7) 
A1 - monomer

>  <Crystalforms alias>  (7) 
F2 - EVD68_Reference_20230131

>  <ConformerSites upload name>  (7) 
24a - 7gpz/B/201

>  <CanonSites upload name>  (7) 
24 - 7gpz/B/201/1

>  <CrystalformSites upload name>  (7) 
F2au - 7gpz/B/201/1

>  <Quatassemblies upload name>  (7) 
A1 - monomer

>  <Crystalforms upload name>  (7) 
F2 - EVD68_Reference_20230131

>  <ConformerSites short tag>  (7) 
24a - 7gpz/B/201

>  <CanonSites short tag>  (7) 
24 - 7gpz/B/201/1

>  <CrystalformSites short tag>  (7) 
F2au - 7gpz/B/201/1

>  <Quatassemblies short tag>  (7) 
A1 - monomer

>  <Crystalforms short tag>  (7) 
F2 - EVD68_Reference_20230131

>  <Centroid res>  (7) 
7gpz/B/164/B_v1

>  <Experiment code>  (7) 
7gpz

>  <Pose>  (7) 
7gpz-a

$$$$
7gp6-a
     RDKit          3D

 15 16  0  0  0  0  0  0  0  0999 V2000
   14.8290   -0.7780   16.7360 N   0  0  0  0  0  0  0  0  0  0  0  0
   11.6910   -3.2350   15.7570 C   0  0  0  0  0  0  0  0  0  0  0  0
   12.6800   -3.8150   16.5500 C   0  0  0  0  0  0  0  0  0  0  0  0
   13.7770   -3.0780   16.9740 C   0  0  0  0  0  0  0  0  0  0  0  0
   13.8570   -1.7540   16.5700 C   0  0  0  0  0  0  0  0  0  0  0  0
   16.1020   -0.9890   17.4330 C   0  0  0  0  0  0  0  0  0  0  0  0
   17.0230   -3.3200   17.0060 C   0  0  0  0  0  0  0  0  0  0  0  0
   13.2170    0.1620   15.5190 N   0  0  0  0  0  0  0  0  0  0  0  0
   15.1840    1.5940   15.9990 C   0  0  0  0  0  0  0  0  0  0  0  0
   16.7940   -4.1930   16.1650 O   0  0  0  0  0  0  0  0  0  0  0  0
   14.3880    0.3440   16.0830 C   0  0  0  0  0  0  0  0  0  0  0  0
   12.8670   -1.1570   15.7970 C   0  0  0  0  0  0  0  0  0  0  0  0
   11.7670   -1.9010   15.3810 C   0  0  0  0  0  0  0  0  0  0  0  0
   17.0550   -1.8580   16.6250 C   0  0  0  0  0  0  0  0  0  0  0  0
   17.2590   -3.5930   18.2770 N   0  0  0  0  0  0  0  0  0  0  0  0
  9 11  1  0
  8 11  2  0
  8 12  1  0
 11  1  1  0
 12 13  1  0
 12  5  2  0
 13  2  2  0
 10  7  2  0
  1  5  1  0
  1  6  1  0
 14  7  1  0
 14  6  1  0
  5  4  1  0
  2  3  1  0
  7 15  1  0
  4  3  2  0
M  END
>  <id>  (8) 
8

>  <inchikey>  (8) 
HZTUIHZIQKFSIL-UHFFFAOYSA-N

>  <alias>  (8) 
7gp6-a

>  <smiles>  (8) 
Cc1nc2ccccc2n1CCC(N)=O

>  <path>  (8) 
/opt/xchem-fragalysis-2/maxwin/BulkDock/TARGETS/D68EV3C/aligned_files/7gp6-a/7gp6-a_hippo.pdb

>  <distance_score>  (8) 
None

>  <energy_score>  (8) 
None

>  <compound>  (8) 
HZTUIHZIQKFSIL-UHFFFAOYSA-N

>  <compound_id>  (8) 
8

>  <target>  (8) 
D68EV3C

>  <tags>  (8) 
['BAD count', '[Other] upload_1 2025-02-11', 'hits', 'MEDIOCRE count', 'Main status', 'GOOD count']

>  <inspirations>  (8) 
None

>  <subsites>  (8) 
None

>  <reference>  (8) 


>  <observation_longname>  (8) 
7gp6_B_201_v1

>  <ConformerSites alias>  (8) 
2a - 7gon/B/201

>  <CanonSites alias>  (8) 
2 - 7gon/B/201/1

>  <CrystalformSites alias>  (8) 
F2j - 7gqb/B/201/1

>  <Quatassemblies alias>  (8) 
A1 - monomer

>  <Crystalforms alias>  (8) 
F2 - EVD68_Reference_20230131

>  <ConformerSites upload name>  (8) 
2a - 7gon/B/201

>  <CanonSites upload name>  (8) 
2 - 7gon/B/201/1

>  <CrystalformSites upload name>  (8) 
F2j - 7gqb/B/201/1

>  <Quatassemblies upload name>  (8) 
A1 - monomer

>  <Crystalforms upload name>  (8) 
F2 - EVD68_Reference_20230131

>  <ConformerSites short tag>  (8) 
2a - 7gon/B/201

>  <CanonSites short tag>  (8) 
2 - 7gon/B/201/1

>  <CrystalformSites short tag>  (8) 
F2j - 7gqb/B/201/1

>  <Quatassemblies short tag>  (8) 
A1 - monomer

>  <Crystalforms short tag>  (8) 
F2 - EVD68_Reference_20230131

>  <Centroid res>  (8) 
7gon/B/47/B_v1

>  <Experiment code>  (8) 
7gp6

>  <Pose>  (8) 
7gp6-a

$$$$
7gp7-a
     RDKit          3D

 14 14  0  0  0  0  0  0  0  0999 V2000
  -11.3650  -25.0000   13.1960 C   0  0  0  0  0  0  0  0  0  0  0  0
  -12.5190  -25.9670   12.9200 C   0  0  0  0  0  0  0  0  0  0  0  0
  -13.2600  -26.2720   14.2190 C   0  0  0  0  0  0  0  0  0  0  0  0
  -10.7350  -24.5180   11.9170 C   0  0  0  0  0  0  0  0  0  0  0  0
  -12.3160  -26.3110   15.3530 N   0  0  0  0  0  0  0  0  0  0  0  0
  -14.0880  -28.7860   18.0660 C   0  0  0  0  0  0  0  0  0  0  0  0
  -13.8390  -25.6410   17.1780 O   0  0  0  0  0  0  0  0  0  0  0  0
  -13.7130  -28.2150   16.7160 C   0  0  0  0  0  0  0  0  0  0  0  0
  -10.9710  -26.7610   14.9440 C   0  0  0  0  0  0  0  0  0  0  0  0
  -10.3220  -25.6840   14.0870 C   0  0  0  0  0  0  0  0  0  0  0  0
  -11.7430  -26.8140   17.7020 O   0  0  0  0  0  0  0  0  0  0  0  0
  -11.3330  -24.4380   10.8670 O   0  0  0  0  0  0  0  0  0  0  0  0
   -9.4970  -24.1970   12.0780 O   0  0  0  0  0  0  0  0  0  0  0  0
  -12.8790  -26.6490   16.8530 S   0  0  0  0  0  0  0  0  0  0  0  0
  6  8  1  0
  8 14  1  0
  9  5  1  0
  9 10  1  0
 11 14  2  0
 14  5  1  0
 14  7  2  0
  5  3  1  0
  3  2  1  0
  2  1  1  0
 10  1  1  0
  1  4  1  0
  4 12  2  0
  4 13  1  0
M  END
>  <id>  (9) 
9

>  <inchikey>  (9) 
FXILSJTWIHHRJV-UHFFFAOYSA-N

>  <alias>  (9) 
7gp7-a

>  <smiles>  (9) 
CCS(=O)(=O)N1CCC(C(=O)O)CC1

>  <path>  (9) 
/opt/xchem-fragalysis-2/maxwin/BulkDock/TARGETS/D68EV3C/aligned_files/7gp7-a/7gp7-a.pdb

>  <distance_score>  (9) 
None

>  <energy_score>  (9) 
None

>  <compound>  (9) 
FXILSJTWIHHRJV-UHFFFAOYSA-N

>  <compound_id>  (9) 
9

>  <target>  (9) 
D68EV3C

>  <tags>  (9) 
['BAD count', '[Other] upload_1 2025-02-11', 'hits', 'MEDIOCRE count', 'Main status', 'GOOD count']

>  <inspirations>  (9) 
None

>  <subsites>  (9) 
None

>  <reference>  (9) 


>  <observation_longname>  (9) 
7gp7_A_201_v1

>  <ConformerSites alias>  (9) 
4a - 7gp7/A/201

>  <CanonSites alias>  (9) 
4 - 7gp7/A/201/1

>  <CrystalformSites alias>  (9) 
F2q - 7gp7/A/201/1

>  <Quatassemblies alias>  (9) 
A1 - monomer

>  <Crystalforms alias>  (9) 
F2 - EVD68_Reference_20230131

>  <ConformerSites upload name>  (9) 
4a - 7gp7/A/201

>  <CanonSites upload name>  (9) 
4 - 7gp7/A/201/1

>  <CrystalformSites upload name>  (9) 
F2q - 7gp7/A/201/1

>  <Quatassemblies upload name>  (9) 
A1 - monomer

>  <Crystalforms upload name>  (9) 
F2 - EVD68_Reference_20230131

>  <ConformerSites short tag>  (9) 
4a - 7gp7/A/201

>  <CanonSites short tag>  (9) 
4 - 7gp7/A/201/1

>  <CrystalformSites short tag>  (9) 
F2q - 7gp7/A/201/1

>  <Quatassemblies short tag>  (9) 
A1 - monomer

>  <Crystalforms short tag>  (9) 
F2 - EVD68_Reference_20230131

>  <Centroid res>  (9) 
7gp7/A/6/A_v1

>  <Experiment code>  (9) 
7gp7

>  <Pose>  (9) 
7gp7-a

$$$$
7gp8-a
     RDKit          3D

 13 13  0  0  0  0  0  0  0  0999 V2000
   14.7600   -2.8280   17.6330 N   0  0  0  0  0  0  0  0  0  0  0  0
   12.7380   -3.5090   16.3890 C   0  0  0  0  0  0  0  0  0  0  0  0
   11.7660   -3.2230   15.4410 C   0  0  0  0  0  0  0  0  0  0  0  0
   11.7760   -2.0190   14.7700 C   0  0  0  0  0  0  0  0  0  0  0  0
   12.7510   -1.0750   15.0410 C   0  0  0  0  0  0  0  0  0  0  0  0
   13.6990   -1.3710   15.9870 C   0  0  0  0  0  0  0  0  0  0  0  0
   17.3670   -2.0640   16.5540 C   0  0  0  0  0  0  0  0  0  0  0  0
   17.2120   -3.5650   16.6070 C   0  0  0  0  0  0  0  0  0  0  0  0
   15.8220   -4.0690   17.5970 S   0  0  0  0  0  0  0  0  0  0  0  0
   16.2710   -4.2620   18.9440 O   0  0  0  0  0  0  0  0  0  0  0  0
   15.1940   -5.1520   16.9050 O   0  0  0  0  0  0  0  0  0  0  0  0
   13.7370   -2.5760   16.6730 C   0  0  0  0  0  0  0  0  0  0  0  0
   14.6270   -0.4390   16.3020 F   0  0  0  0  0  0  0  0  0  0  0  0
  7  8  1  0
  8  9  1  0
  9 10  2  0
  9 11  2  0
  9  1  1  0
  1 12  1  0
 12  2  2  0
  2  3  1  0
  3  4  2  0
  4  5  1  0
  5  6  2  0
  6 13  1  0
 12  6  1  0
M  END
>  <id>  (10) 
10

>  <inchikey>  (10) 
MRTGYFRQZQCITC-UHFFFAOYSA-N

>  <alias>  (10) 
7gp8-a

>  <smiles>  (10) 
CCS(=O)(=O)Nc1ccccc1F

>  <path>  (10) 
/opt/xchem-fragalysis-2/maxwin/BulkDock/TARGETS/D68EV3C/aligned_files/7gp8-a/7gp8-a.pdb

>  <distance_score>  (10) 
None

>  <energy_score>  (10) 
None

>  <compound>  (10) 
MRTGYFRQZQCITC-UHFFFAOYSA-N

>  <compound_id>  (10) 
10

>  <target>  (10) 
D68EV3C

>  <tags>  (10) 
['BAD count', '[Other] upload_1 2025-02-11', 'hits', 'MEDIOCRE count', 'Main status', 'GOOD count']

>  <inspirations>  (10) 
None

>  <subsites>  (10) 
None

>  <reference>  (10) 


>  <observation_longname>  (10) 
7gp8_B_201_v1

>  <ConformerSites alias>  (10) 
2a - 7gon/B/201

>  <CanonSites alias>  (10) 
2 - 7gon/B/201/1

>  <CrystalformSites alias>  (10) 
F2j - 7gqb/B/201/1

>  <Quatassemblies alias>  (10) 
A1 - monomer

>  <Crystalforms alias>  (10) 
F2 - EVD68_Reference_20230131

>  <ConformerSites upload name>  (10) 
2a - 7gon/B/201

>  <CanonSites upload name>  (10) 
2 - 7gon/B/201/1

>  <CrystalformSites upload name>  (10) 
F2j - 7gqb/B/201/1

>  <Quatassemblies upload name>  (10) 
A1 - monomer

>  <Crystalforms upload name>  (10) 
F2 - EVD68_Reference_20230131

>  <ConformerSites short tag>  (10) 
2a - 7gon/B/201

>  <CanonSites short tag>  (10) 
2 - 7gon/B/201/1

>  <CrystalformSites short tag>  (10) 
F2j - 7gqb/B/201/1

>  <Quatassemblies short tag>  (10) 
A1 - monomer

>  <Crystalforms short tag>  (10) 
F2 - EVD68_Reference_20230131

>  <Centroid res>  (10) 
7gon/B/47/B_v1

>  <Experiment code>  (10) 
7gp8

>  <Pose>  (10) 
7gp8-a

$$$$
7gpu-a
     RDKit          3D

 16 17  0  0  0  0  0  0  0  0999 V2000
   12.3040   -3.6060    3.1920 C   0  0  0  0  0  0  0  0  0  0  0  0
   12.7450   -3.0370    4.3760 C   0  0  0  0  0  0  0  0  0  0  0  0
   13.3890   -3.8030    5.3170 C   0  0  0  0  0  0  0  0  0  0  0  0
   13.5710   -5.1470    5.0950 C   0  0  0  0  0  0  0  0  0  0  0  0
   13.1120   -5.7260    3.9260 C   0  0  0  0  0  0  0  0  0  0  0  0
    9.9290   -7.4970    3.4140 C   0  0  0  0  0  0  0  0  0  0  0  0
   10.7050   -7.2260    2.3720 N   0  0  0  0  0  0  0  0  0  0  0  0
   14.2490   -7.0340    1.5450 C   0  0  0  0  0  0  0  0  0  0  0  0
   14.6350   -8.1020    2.4310 O   0  0  0  0  0  0  0  0  0  0  0  0
   12.7510   -6.9250    1.2560 C   0  0  1  0  0  0  0  0  0  0  0  0
    9.2610   -6.3500    4.0870 C   0  0  0  0  0  0  0  0  0  0  0  0
   11.9030   -7.9780    1.9910 C   0  0  0  0  0  0  0  0  0  0  0  0
   12.0640   -5.5580    1.6170 C   0  0  2  0  0  0  0  0  0  0  0  0
   12.4920   -4.9570    2.9440 C   0  0  0  0  0  0  0  0  0  0  0  0
   10.6160   -5.9900    1.6160 C   0  0  0  0  0  0  0  0  0  0  0  0
    9.8520   -8.6340    3.8590 O   0  0  0  0  0  0  0  0  0  0  0  0
 11  6  1  0
 16  6  2  0
  6  7  1  0
 15  7  1  0
 15 13  1  0
  7 12  1  0
 12 10  1  0
 13 10  1  0
 13 14  1  1
 10  8  1  1
  5 14  1  0
  5  4  2  0
 14  1  2  0
  4  3  1  0
  8  9  1  0
  1  2  1  0
  3  2  2  0
M  END
>  <id>  (11) 
11

>  <inchikey>  (11) 
AHYYDCAAWMKXAQ-OLZOCXBDSA-N

>  <alias>  (11) 
7gpu-a

>  <smiles>  (11) 
CC(=O)N1C[C@H](CO)[C@H](c2ccccc2)C1

>  <path>  (11) 
/opt/xchem-fragalysis-2/maxwin/BulkDock/TARGETS/D68EV3C/aligned_files/7gpu-a/7gpu-a.pdb

>  <distance_score>  (11) 
None

>  <energy_score>  (11) 
None

>  <compound>  (11) 
AHYYDCAAWMKXAQ-UHFFFAOYSA-N

>  <compound_id>  (11) 
11

>  <target>  (11) 
D68EV3C

>  <tags>  (11) 
['BAD count', '[Other] upload_1 2025-02-11', 'hits', 'MEDIOCRE count', 'Main status', 'GOOD count']

>  <inspirations>  (11) 
None

>  <subsites>  (11) 
None

>  <reference>  (11) 


>  <observation_longname>  (11) 
7gpu_A_201_v1

>  <ConformerSites alias>  (11) 
2a - 7gon/B/201

>  <CanonSites alias>  (11) 
2 - 7gon/B/201/1

>  <CrystalformSites alias>  (11) 
F2i - 7gpu/A/201/1

>  <Quatassemblies alias>  (11) 
A1 - monomer

>  <Crystalforms alias>  (11) 
F2 - EVD68_Reference_20230131

>  <ConformerSites upload name>  (11) 
2a - 7gon/B/201

>  <CanonSites upload name>  (11) 
2 - 7gon/B/201/1

>  <CrystalformSites upload name>  (11) 
F2i - 7gpu/A/201/1

>  <Quatassemblies upload name>  (11) 
A1 - monomer

>  <Crystalforms upload name>  (11) 
F2 - EVD68_Reference_20230131

>  <ConformerSites short tag>  (11) 
2a - 7gon/B/201

>  <CanonSites short tag>  (11) 
2 - 7gon/B/201/1

>  <CrystalformSites short tag>  (11) 
F2i - 7gpu/A/201/1

>  <Quatassemblies short tag>  (11) 
A1 - monomer

>  <Crystalforms short tag>  (11) 
F2 - EVD68_Reference_20230131

>  <Centroid res>  (11) 
7gon/B/47/B_v1

>  <Experiment code>  (11) 
7gpu

>  <Pose>  (11) 
7gpu-a

$$$$
7gpu-b
     RDKit          3D

 16 17  0  0  0  0  0  0  0  0999 V2000
   13.6170   -2.7100   16.7550 C   0  0  0  0  0  0  0  0  0  0  0  0
   12.4320   -3.4090   16.5900 C   0  0  0  0  0  0  0  0  0  0  0  0
   11.5180   -3.0100   15.6420 C   0  0  0  0  0  0  0  0  0  0  0  0
   11.7690   -1.8940   14.8800 C   0  0  0  0  0  0  0  0  0  0  0  0
   12.9570   -1.1980   15.0340 C   0  0  0  0  0  0  0  0  0  0  0  0
   15.8330   -2.1520   12.4970 C   0  0  0  0  0  0  0  0  0  0  0  0
   16.0430   -1.8710   13.8110 N   0  0  0  0  0  0  0  0  0  0  0  0
   16.6600   -2.9530   17.3160 C   0  0  0  0  0  0  0  0  0  0  0  0
   16.8750   -2.1860   18.4970 O   0  0  0  0  0  0  0  0  0  0  0  0
   16.5390   -2.0560   16.0930 C   0  0  1  0  0  0  0  0  0  0  0  0
   14.6420   -1.5430   11.8260 C   0  0  0  0  0  0  0  0  0  0  0  0
   16.5730   -2.8410   14.7760 C   0  0  0  0  0  0  0  0  0  0  0  0
   15.3330   -1.0630   15.8680 C   0  0  2  0  0  0  0  0  0  0  0  0
   13.9220   -1.6280   15.9400 C   0  0  0  0  0  0  0  0  0  0  0  0
   15.7210   -0.6040   14.4680 C   0  0  0  0  0  0  0  0  0  0  0  0
   16.5900   -2.8860   11.8840 O   0  0  0  0  0  0  0  0  0  0  0  0
 11  6  1  0
 16  6  2  0
  6  7  1  0
 15  7  1  0
 15 13  1  0
  7 12  1  0
 12 10  1  0
 13 10  1  0
 13 14  1  6
 10  8  1  1
  5 14  1  0
  5  4  2  0
 14  1  2  0
  4  3  1  0
  8  9  1  0
  1  2  1  0
  3  2  2  0
M  END
>  <id>  (12) 
12

>  <inchikey>  (12) 
AHYYDCAAWMKXAQ-OLZOCXBDSA-N

>  <alias>  (12) 
7gpu-b

>  <smiles>  (12) 
CC(=O)N1C[C@H](CO)[C@H](c2ccccc2)C1

>  <path>  (12) 
/opt/xchem-fragalysis-2/maxwin/BulkDock/TARGETS/D68EV3C/aligned_files/7gpu-b/7gpu-b.pdb

>  <distance_score>  (12) 
None

>  <energy_score>  (12) 
None

>  <compound>  (12) 
AHYYDCAAWMKXAQ-UHFFFAOYSA-N

>  <compound_id>  (12) 
11

>  <target>  (12) 
D68EV3C

>  <tags>  (12) 
['BAD count', '[Other] upload_1 2025-02-11', 'hits', 'MEDIOCRE count', 'Main status', 'GOOD count']

>  <inspirations>  (12) 
None

>  <subsites>  (12) 
None

>  <reference>  (12) 


>  <observation_longname>  (12) 
7gpu_B_301_v1

>  <ConformerSites alias>  (12) 
2a - 7gon/B/201

>  <CanonSites alias>  (12) 
2 - 7gon/B/201/1

>  <CrystalformSites alias>  (12) 
F2j - 7gqb/B/201/1

>  <Quatassemblies alias>  (12) 
A1 - monomer

>  <Crystalforms alias>  (12) 
F2 - EVD68_Reference_20230131

>  <ConformerSites upload name>  (12) 
2a - 7gon/B/201

>  <CanonSites upload name>  (12) 
2 - 7gon/B/201/1

>  <CrystalformSites upload name>  (12) 
F2j - 7gqb/B/201/1

>  <Quatassemblies upload name>  (12) 
A1 - monomer

>  <Crystalforms upload name>  (12) 
F2 - EVD68_Reference_20230131

>  <ConformerSites short tag>  (12) 
2a - 7gon/B/201

>  <CanonSites short tag>  (12) 
2 - 7gon/B/201/1

>  <CrystalformSites short tag>  (12) 
F2j - 7gqb/B/201/1

>  <Quatassemblies short tag>  (12) 
A1 - monomer

>  <Crystalforms short tag>  (12) 
F2 - EVD68_Reference_20230131

>  <Centroid res>  (12) 
7gon/B/47/B_v1

>  <Experiment code>  (12) 
7gpu

>  <Pose>  (12) 
7gpu-a

$$$$
7gp9-a
     RDKit          3D

 16 17  0  0  0  0  0  0  0  0999 V2000
    0.6840   -0.0070   28.3420 C   0  0  0  0  0  0  0  0  0  0  0  0
    0.3670    1.2690   27.9040 C   0  0  0  0  0  0  0  0  0  0  0  0
   -0.8920    1.4700   27.3700 C   0  0  0  0  0  0  0  0  0  0  0  0
   -1.7910    0.4380   27.2630 C   0  0  0  0  0  0  0  0  0  0  0  0
   -1.4910   -0.8250   27.7220 C   0  0  0  0  0  0  0  0  0  0  0  0
   -0.9470   -2.9450   29.6400 N   0  0  0  0  0  0  0  0  0  0  0  0
   -2.1700   -0.3300   31.4160 C   0  0  0  0  0  0  0  0  0  0  0  0
    0.3340   -3.3310   31.7260 O   0  0  0  0  0  0  0  0  0  0  0  0
   -0.8360   -1.0060   31.6160 C   0  0  0  0  0  0  0  0  0  0  0  0
    0.1310   -2.4250   28.7870 C   0  0  0  0  0  0  0  0  0  0  0  0
   -0.2320   -1.0560   28.2710 C   0  0  0  0  0  0  0  0  0  0  0  0
   -2.7670    2.2810   26.4600 C   0  0  0  0  0  0  0  0  0  0  0  0
   -2.1420   -3.2780   31.7870 O   0  0  0  0  0  0  0  0  0  0  0  0
   -2.9180    0.8630   26.5970 O   0  0  0  0  0  0  0  0  0  0  0  0
   -1.4630    2.6420   26.9260 O   0  0  0  0  0  0  0  0  0  0  0  0
   -0.9030   -2.7580   31.2800 S   0  0  0  0  0  0  0  0  0  0  0  0
  8 16  2  0
  7  9  1  0
  9 16  1  0
 16 13  2  0
 16  6  1  0
  6 10  1  0
 10 11  1  0
 11  5  1  0
 11  1  2  0
  5  4  2  0
  1  2  1  0
  4 14  1  0
  4  3  1  0
 14 12  1  0
  2  3  2  0
  3 15  1  0
 12 15  1  0
M  END
>  <id>  (13) 
13

>  <inchikey>  (13) 
UKPLBUIFSDRLEZ-UHFFFAOYSA-N

>  <alias>  (13) 
7gp9-a

>  <smiles>  (13) 
CCS(=O)(=O)NCc1ccc2c(c1)OCO2

>  <path>  (13) 
/opt/xchem-fragalysis-2/maxwin/BulkDock/TARGETS/D68EV3C/aligned_files/7gp9-a/7gp9-a.pdb

>  <distance_score>  (13) 
None

>  <energy_score>  (13) 
None

>  <compound>  (13) 
UKPLBUIFSDRLEZ-UHFFFAOYSA-N

>  <compound_id>  (13) 
12

>  <target>  (13) 
D68EV3C

>  <tags>  (13) 
['BAD count', '[Other] upload_1 2025-02-11', '[Other] iter1_frags', 'hits', 'MEDIOCRE count', 'Main status', 'GOOD count']

>  <inspirations>  (13) 
None

>  <subsites>  (13) 
None

>  <reference>  (13) 


>  <observation_longname>  (13) 
7gp9_A_201_v1

>  <ConformerSites alias>  (13) 
1a - 7gp9/A/201

>  <CanonSites alias>  (13) 
1 - 7gp9/A/201/1

>  <CrystalformSites alias>  (13) 
F2b - 7gp9/A/201/1

>  <Quatassemblies alias>  (13) 
A1 - monomer

>  <Crystalforms alias>  (13) 
F2 - EVD68_Reference_20230131

>  <ConformerSites upload name>  (13) 
1a - 7gp9/A/201

>  <CanonSites upload name>  (13) 
1 - 7gp9/A/201/1

>  <CrystalformSites upload name>  (13) 
F2b - 7gp9/A/201/1

>  <Quatassemblies upload name>  (13) 
A1 - monomer

>  <Crystalforms upload name>  (13) 
F2 - EVD68_Reference_20230131

>  <ConformerSites short tag>  (13) 
1a - 7gp9/A/201

>  <CanonSites short tag>  (13) 
1 - 7gp9/A/201/1

>  <CrystalformSites short tag>  (13) 
F2b - 7gp9/A/201/1

>  <Quatassemblies short tag>  (13) 
A1 - monomer

>  <Crystalforms short tag>  (13) 
F2 - EVD68_Reference_20230131

>  <Centroid res>  (13) 
7gp9/A/163/A_v1

>  <Experiment code>  (13) 
7gp9

>  <Pose>  (13) 
7gp9-a

$$$$
7gpv-a
     RDKit          3D

  6  6  0  0  0  0  0  0  0  0999 V2000
  -23.9710   -9.5630   26.8320 N   0  0  0  0  0  0  0  0  0  0  0  0
  -25.9530   -9.1150   25.9080 C   0  0  0  0  0  0  0  0  0  0  0  0
  -25.5780   -6.5280   24.6910 Br  0  0  0  0  0  0  0  0  0  0  0  0
  -25.1650   -8.0550   25.7180 C   0  0  0  0  0  0  0  0  0  0  0  0
  -23.9530   -8.3690   26.3250 C   0  0  0  0  0  0  0  0  0  0  0  0
  -25.2630  -10.0530   26.5660 O   0  0  0  0  0  0  0  0  0  0  0  0
  1  5  2  0
  1  6  1  0
  5  4  1  0
  4  3  1  0
  4  2  2  0
  6  2  1  0
M  END
>  <id>  (14) 
14

>  <inchikey>  (14) 
IRDVIGFQMLUJAM-UHFFFAOYSA-N

>  <alias>  (14) 
7gpv-a

>  <smiles>  (14) 
Brc1cnoc1

>  <path>  (14) 
/opt/xchem-fragalysis-2/maxwin/BulkDock/TARGETS/D68EV3C/aligned_files/7gpv-a/7gpv-a.pdb

>  <distance_score>  (14) 
None

>  <energy_score>  (14) 
None

>  <compound>  (14) 
IRDVIGFQMLUJAM-UHFFFAOYSA-N

>  <compound_id>  (14) 
13

>  <target>  (14) 
D68EV3C

>  <tags>  (14) 
['BAD count', '[Other] upload_1 2025-02-11', 'hits', 'MEDIOCRE count', 'Main status', 'GOOD count']

>  <inspirations>  (14) 
None

>  <subsites>  (14) 
None

>  <reference>  (14) 


>  <observation_longname>  (14) 
7gpv_B_201_v1

>  <ConformerSites alias>  (14) 
21a - 7gpv/B/201

>  <CanonSites alias>  (14) 
21 - 7gpv/B/201/1

>  <CrystalformSites alias>  (14) 
F2ar - 7gpv/B/201/1

>  <Quatassemblies alias>  (14) 
A1 - monomer

>  <Crystalforms alias>  (14) 
F2 - EVD68_Reference_20230131

>  <ConformerSites upload name>  (14) 
21a - 7gpv/B/201

>  <CanonSites upload name>  (14) 
21 - 7gpv/B/201/1

>  <CrystalformSites upload name>  (14) 
F2ar - 7gpv/B/201/1

>  <Quatassemblies upload name>  (14) 
A1 - monomer

>  <Crystalforms upload name>  (14) 
F2 - EVD68_Reference_20230131

>  <ConformerSites short tag>  (14) 
21a - 7gpv/B/201

>  <CanonSites short tag>  (14) 
21 - 7gpv/B/201/1

>  <CrystalformSites short tag>  (14) 
F2ar - 7gpv/B/201/1

>  <Quatassemblies short tag>  (14) 
A1 - monomer

>  <Crystalforms short tag>  (14) 
F2 - EVD68_Reference_20230131

>  <Centroid res>  (14) 
7gpv/B/95/B_v1

>  <Experiment code>  (14) 
7gpv

>  <Pose>  (14) 
7gpv-a

$$$$
7gpw-a
     RDKit          3D

  8  8  0  0  0  0  0  0  0  0999 V2000
   13.6200   -1.3990   16.7080 C   0  0  0  0  0  0  0  0  0  0  0  0
   14.4980   -1.6700   17.6910 C   0  0  0  0  0  0  0  0  0  0  0  0
   14.6590   -2.9320   18.1700 N   0  0  0  0  0  0  0  0  0  0  0  0
   12.8920   -2.5110   16.2160 C   0  0  0  0  0  0  0  0  0  0  0  0
   14.1470   -5.1180   18.2420 O   0  0  0  0  0  0  0  0  0  0  0  0
   13.9560   -4.0170   17.7150 C   0  0  0  0  0  0  0  0  0  0  0  0
   13.0280   -3.7600   16.6760 C   0  0  0  0  0  0  0  0  0  0  0  0
   11.5300   -2.1730   14.6840 I   0  0  0  0  0  0  0  0  0  0  0  0
  3  2  2  0
  3  6  1  0
  5  6  2  0
  2  1  1  0
  6  7  1  0
  1  4  2  0
  7  4  1  0
  4  8  1  0
M  END
>  <id>  (15) 
15

>  <inchikey>  (15) 
GRVSGGNZRNHMQI-UHFFFAOYSA-N

>  <alias>  (15) 
7gpw-a

>  <smiles>  (15) 
O=C1CC(I)=CC=N1

>  <path>  (15) 
/opt/xchem-fragalysis-2/maxwin/BulkDock/TARGETS/D68EV3C/aligned_files/7gpw-a/7gpw-a.pdb

>  <distance_score>  (15) 
None

>  <energy_score>  (15) 
None

>  <compound>  (15) 
GRVSGGNZRNHMQI-UHFFFAOYSA-N

>  <compound_id>  (15) 
14

>  <target>  (15) 
D68EV3C

>  <tags>  (15) 
['BAD count', '[Other] upload_1 2025-02-11', 'hits', 'MEDIOCRE count', 'Main status', 'GOOD count']

>  <inspirations>  (15) 
None

>  <subsites>  (15) 
None

>  <reference>  (15) 


>  <observation_longname>  (15) 
7gpw_B_201_v1

>  <ConformerSites alias>  (15) 
2a - 7gon/B/201

>  <CanonSites alias>  (15) 
2 - 7gon/B/201/1

>  <CrystalformSites alias>  (15) 
F2j - 7gqb/B/201/1

>  <Quatassemblies alias>  (15) 
A1 - monomer

>  <Crystalforms alias>  (15) 
F2 - EVD68_Reference_20230131

>  <ConformerSites upload name>  (15) 
2a - 7gon/B/201

>  <CanonSites upload name>  (15) 
2 - 7gon/B/201/1

>  <CrystalformSites upload name>  (15) 
F2j - 7gqb/B/201/1

>  <Quatassemblies upload name>  (15) 
A1 - monomer

>  <Crystalforms upload name>  (15) 
F2 - EVD68_Reference_20230131

>  <ConformerSites short tag>  (15) 
2a - 7gon/B/201

>  <CanonSites short tag>  (15) 
2 - 7gon/B/201/1

>  <CrystalformSites short tag>  (15) 
F2j - 7gqb/B/201/1

>  <Quatassemblies short tag>  (15) 
A1 - monomer

>  <Crystalforms short tag>  (15) 
F2 - EVD68_Reference_20230131

>  <Centroid res>  (15) 
7gon/B/47/B_v1

>  <Experiment code>  (15) 
7gpw

>  <Pose>  (15) 
7gpw-a

$$$$
7gpw-c
     RDKit          3D

  8  8  0  0  0  0  0  0  0  0999 V2000
  -12.2530  -23.8170   30.8100 C   0  0  0  0  0  0  0  0  0  0  0  0
  -13.1970  -23.0690   31.3950 C   0  0  0  0  0  0  0  0  0  0  0  0
  -13.3580  -23.0790   32.7390 N   0  0  0  0  0  0  0  0  0  0  0  0
  -11.4880  -24.5670   31.6780 C   0  0  0  0  0  0  0  0  0  0  0  0
  -12.7870  -23.7320   34.7800 O   0  0  0  0  0  0  0  0  0  0  0  0
  -12.6050  -23.8360   33.5880 C   0  0  0  0  0  0  0  0  0  0  0  0
  -11.6140  -24.6310   32.9920 C   0  0  0  0  0  0  0  0  0  0  0  0
  -10.0310  -25.6790   30.7660 I   0  0  0  0  0  0  0  0  0  0  0  0
  3  2  2  0
  3  6  1  0
  5  6  2  0
  2  1  1  0
  6  7  1  0
  1  4  2  0
  7  4  1  0
  4  8  1  0
M  END
>  <id>  (16) 
16

>  <inchikey>  (16) 
GRVSGGNZRNHMQI-UHFFFAOYSA-N

>  <alias>  (16) 
7gpw-c

>  <smiles>  (16) 
O=C1CC(I)=CC=N1

>  <path>  (16) 
/opt/xchem-fragalysis-2/maxwin/BulkDock/TARGETS/D68EV3C/aligned_files/7gpw-c/7gpw-c.pdb

>  <distance_score>  (16) 
None

>  <energy_score>  (16) 
None

>  <compound>  (16) 
GRVSGGNZRNHMQI-UHFFFAOYSA-N

>  <compound_id>  (16) 
14

>  <target>  (16) 
D68EV3C

>  <tags>  (16) 
['BAD count', '[Other] upload_1 2025-02-11', 'hits', 'MEDIOCRE count', 'Main status', 'GOOD count']

>  <inspirations>  (16) 
None

>  <subsites>  (16) 
None

>  <reference>  (16) 


>  <observation_longname>  (16) 
7gpw_A_201_v1

>  <ConformerSites alias>  (16) 
22a - 7gpw/A/201

>  <CanonSites alias>  (16) 
22 - 7gpw/A/201/1

>  <CrystalformSites alias>  (16) 
F2as - 7gpw/A/201/1

>  <Quatassemblies alias>  (16) 
A1 - monomer

>  <Crystalforms alias>  (16) 
F2 - EVD68_Reference_20230131

>  <ConformerSites upload name>  (16) 
22a - 7gpw/A/201

>  <CanonSites upload name>  (16) 
22 - 7gpw/A/201/1

>  <CrystalformSites upload name>  (16) 
F2as - 7gpw/A/201/1

>  <Quatassemblies upload name>  (16) 
A1 - monomer

>  <Crystalforms upload name>  (16) 
F2 - EVD68_Reference_20230131

>  <ConformerSites short tag>  (16) 
22a - 7gpw/A/201

>  <CanonSites short tag>  (16) 
22 - 7gpw/A/201/1

>  <CrystalformSites short tag>  (16) 
F2as - 7gpw/A/201/1

>  <Quatassemblies short tag>  (16) 
A1 - monomer

>  <Crystalforms short tag>  (16) 
F2 - EVD68_Reference_20230131

>  <Centroid res>  (16) 
7gpw/B/115/A_v1

>  <Experiment code>  (16) 
7gpw

>  <Pose>  (16) 
7gpw-c

$$$$
7gpw-b
     RDKit          3D

  8  8  0  0  0  0  0  0  0  0999 V2000
   -6.3780   -1.7280    6.8860 C   0  0  0  0  0  0  0  0  0  0  0  0
   -5.8800   -0.5280    7.2340 C   0  0  0  0  0  0  0  0  0  0  0  0
   -6.5990    0.3490    7.9830 N   0  0  0  0  0  0  0  0  0  0  0  0
   -7.6900   -2.0100    7.3570 C   0  0  0  0  0  0  0  0  0  0  0  0
   -8.4330    0.9640    9.1340 O   0  0  0  0  0  0  0  0  0  0  0  0
   -7.8630    0.1010    8.4470 C   0  0  0  0  0  0  0  0  0  0  0  0
   -8.4140   -1.1630    8.0920 C   0  0  0  0  0  0  0  0  0  0  0  0
   -8.5010   -3.8670    6.8880 I   0  0  0  0  0  0  0  0  0  0  0  0
  3  2  2  0
  3  6  1  0
  5  6  2  0
  2  1  1  0
  6  7  1  0
  1  4  2  0
  7  4  1  0
  4  8  1  0
M  END
>  <id>  (17) 
17

>  <inchikey>  (17) 
GRVSGGNZRNHMQI-UHFFFAOYSA-N

>  <alias>  (17) 
7gpw-b

>  <smiles>  (17) 
O=C1CC(I)=CC=N1

>  <path>  (17) 
/opt/xchem-fragalysis-2/maxwin/BulkDock/TARGETS/D68EV3C/aligned_files/7gpw-b/7gpw-b_hippo.pdb

>  <distance_score>  (17) 
None

>  <energy_score>  (17) 
None

>  <compound>  (17) 
GRVSGGNZRNHMQI-UHFFFAOYSA-N

>  <compound_id>  (17) 
14

>  <target>  (17) 
D68EV3C

>  <tags>  (17) 
['BAD count', '[Other] upload_1 2025-02-11', 'hits', 'MEDIOCRE count', 'Main status', 'GOOD count']

>  <inspirations>  (17) 
None

>  <subsites>  (17) 
None

>  <reference>  (17) 


>  <observation_longname>  (17) 
7gpw_B_202_v1

>  <ConformerSites alias>  (17) 
3a - 7gpw/B/202

>  <CanonSites alias>  (17) 
3 - 7gpw/B/202/1

>  <CrystalformSites alias>  (17) 
F2l - 7go5/B/401/1

>  <Quatassemblies alias>  (17) 
A1 - monomer

>  <Crystalforms alias>  (17) 
F2 - EVD68_Reference_20230131

>  <ConformerSites upload name>  (17) 
3a - 7gpw/B/202

>  <CanonSites upload name>  (17) 
3 - 7gpw/B/202/1

>  <CrystalformSites upload name>  (17) 
F2l - 7go5/B/401/1

>  <Quatassemblies upload name>  (17) 
A1 - monomer

>  <Crystalforms upload name>  (17) 
F2 - EVD68_Reference_20230131

>  <ConformerSites short tag>  (17) 
3a - 7gpw/B/202

>  <CanonSites short tag>  (17) 
3 - 7gpw/B/202/1

>  <CrystalformSites short tag>  (17) 
F2l - 7go5/B/401/1

>  <Quatassemblies short tag>  (17) 
A1 - monomer

>  <Crystalforms short tag>  (17) 
F2 - EVD68_Reference_20230131

>  <Centroid res>  (17) 
7gpw/B/74/B_v1

>  <Experiment code>  (17) 
7gpw

>  <Pose>  (17) 
7gpw-b

$$$$
7gpx-a
     RDKit          3D

 10 10  0  0  0  0  0  0  0  0999 V2000
  -21.2670    2.5920   13.3200 C   0  0  0  0  0  0  0  0  0  0  0  0
  -20.0850    2.2050   12.7170 C   0  0  0  0  0  0  0  0  0  0  0  0
  -18.9290    2.1190   13.4740 C   0  0  0  0  0  0  0  0  0  0  0  0
  -20.1010    3.5390   17.8960 N   0  0  0  0  0  0  0  0  0  0  0  0
  -18.9370    2.4300   14.8400 C   0  0  0  0  0  0  0  0  0  0  0  0
  -17.7700    2.4380   15.6070 O   0  0  0  0  0  0  0  0  0  0  0  0
  -20.1570    2.7920   15.4380 C   0  0  0  0  0  0  0  0  0  0  0  0
  -20.1570    3.1930   16.8170 C   0  0  0  0  0  0  0  0  0  0  0  0
  -21.3330    2.8570   14.6770 C   0  0  0  0  0  0  0  0  0  0  0  0
  -22.7950    2.9230   12.2180 Br  0  0  0  0  0  0  0  0  0  0  0  0
 10  1  1  0
  1  9  2  0
  1  2  1  0
  9  7  1  0
  2  3  2  0
  7  8  1  0
  7  5  2  0
  8  4  3  0
  3  5  1  0
  5  6  1  0
M  END
>  <id>  (18) 
18

>  <inchikey>  (18) 
PVCONXMDUZOPJH-UHFFFAOYSA-N

>  <alias>  (18) 
7gpx-a

>  <smiles>  (18) 
N#Cc1cc(Br)ccc1O

>  <path>  (18) 
/opt/xchem-fragalysis-2/maxwin/BulkDock/TARGETS/D68EV3C/aligned_files/7gpx-a/7gpx-a.pdb

>  <distance_score>  (18) 
None

>  <energy_score>  (18) 
None

>  <compound>  (18) 
PVCONXMDUZOPJH-UHFFFAOYSA-N

>  <compound_id>  (18) 
15

>  <target>  (18) 
D68EV3C

>  <tags>  (18) 
['BAD count', '[Other] upload_1 2025-02-11', 'hits', 'MEDIOCRE count', 'Main status', 'GOOD count']

>  <inspirations>  (18) 
None

>  <subsites>  (18) 
None

>  <reference>  (18) 


>  <observation_longname>  (18) 
7gpx_B_201_v1

>  <ConformerSites alias>  (18) 
23a - 7gpx/B/201

>  <CanonSites alias>  (18) 
23 - 7gpx/B/201/1

>  <CrystalformSites alias>  (18) 
F2at - 7gpx/B/201/1

>  <Quatassemblies alias>  (18) 
A1 - monomer

>  <Crystalforms alias>  (18) 
F2 - EVD68_Reference_20230131

>  <ConformerSites upload name>  (18) 
23a - 7gpx/B/201

>  <CanonSites upload name>  (18) 
23 - 7gpx/B/201/1

>  <CrystalformSites upload name>  (18) 
F2at - 7gpx/B/201/1

>  <Quatassemblies upload name>  (18) 
A1 - monomer

>  <Crystalforms upload name>  (18) 
F2 - EVD68_Reference_20230131

>  <ConformerSites short tag>  (18) 
23a - 7gpx/B/201

>  <CanonSites short tag>  (18) 
23 - 7gpx/B/201/1

>  <CrystalformSites short tag>  (18) 
F2at - 7gpx/B/201/1

>  <Quatassemblies short tag>  (18) 
A1 - monomer

>  <Crystalforms short tag>  (18) 
F2 - EVD68_Reference_20230131

>  <Centroid res>  (18) 
7gpx/B/64/B_v1

>  <Experiment code>  (18) 
7gpx

>  <Pose>  (18) 
7gpx-a

$$$$
7gpy-a
     RDKit          3D

 11 11  0  0  0  0  0  0  0  0999 V2000
  -11.8260  -33.7340   23.2550 C   0  0  0  0  0  0  0  0  0  0  0  0
  -10.7880  -33.4470   22.3960 C   0  0  0  0  0  0  0  0  0  0  0  0
   -9.5500  -34.0330   22.5380 C   0  0  0  0  0  0  0  0  0  0  0  0
   -9.3360  -34.9220   23.5760 C   0  0  0  0  0  0  0  0  0  0  0  0
  -11.6150  -34.6290   24.2900 C   0  0  0  0  0  0  0  0  0  0  0  0
   -8.9250  -36.4920   25.8180 O   0  0  0  0  0  0  0  0  0  0  0  0
  -10.1790  -36.3100   25.4840 C   0  0  0  0  0  0  0  0  0  0  0  0
  -11.1130  -36.9510   25.9580 O   0  0  0  0  0  0  0  0  0  0  0  0
  -10.3720  -35.2350   24.4750 C   0  0  0  0  0  0  0  0  0  0  0  0
  -11.0640  -32.2140   20.9820 Br  0  0  0  0  0  0  0  0  0  0  0  0
   -8.1040  -35.4700   23.7020 O   0  0  0  0  0  0  0  0  0  0  0  0
  1  5  2  0
  1  2  1  0
  5  9  1  0
 10  2  1  0
  2  3  2  0
  8  7  2  0
  9  7  1  0
  9  4  2  0
  7  6  1  0
  3  4  1  0
  4 11  1  0
M  END
>  <id>  (19) 
19

>  <inchikey>  (19) 
FYAKLZKQJDBBKW-UHFFFAOYSA-N

>  <alias>  (19) 
7gpy-a

>  <smiles>  (19) 
O=C(O)c1ccc(Br)cc1O

>  <path>  (19) 
/opt/xchem-fragalysis-2/maxwin/BulkDock/TARGETS/D68EV3C/aligned_files/7gpy-a/7gpy-a.pdb

>  <distance_score>  (19) 
None

>  <energy_score>  (19) 
None

>  <compound>  (19) 
FYAKLZKQJDBBKW-UHFFFAOYSA-N

>  <compound_id>  (19) 
16

>  <target>  (19) 
D68EV3C

>  <tags>  (19) 
['BAD count', '[Other] upload_1 2025-02-11', 'hits', 'MEDIOCRE count', 'Main status', 'GOOD count']

>  <inspirations>  (19) 
None

>  <subsites>  (19) 
None

>  <reference>  (19) 


>  <observation_longname>  (19) 
7gpy_B_201_v1

>  <ConformerSites alias>  (19) 
8a - 7goa/A/201

>  <CanonSites alias>  (19) 
8 - 7goa/A/201/1

>  <CrystalformSites alias>  (19) 
F2ad - 7gpy/B/201/1

>  <Quatassemblies alias>  (19) 
A1 - monomer

>  <Crystalforms alias>  (19) 
F2 - EVD68_Reference_20230131

>  <ConformerSites upload name>  (19) 
8a - 7goa/A/201

>  <CanonSites upload name>  (19) 
8 - 7goa/A/201/1

>  <CrystalformSites upload name>  (19) 
F2ad - 7gpy/B/201/1

>  <Quatassemblies upload name>  (19) 
A1 - monomer

>  <Crystalforms upload name>  (19) 
F2 - EVD68_Reference_20230131

>  <ConformerSites short tag>  (19) 
8a - 7goa/A/201

>  <CanonSites short tag>  (19) 
8 - 7goa/A/201/1

>  <CrystalformSites short tag>  (19) 
F2ad - 7gpy/B/201/1

>  <Quatassemblies short tag>  (19) 
A1 - monomer

>  <Crystalforms short tag>  (19) 
F2 - EVD68_Reference_20230131

>  <Centroid res>  (19) 
7goa/A/0/A_v1

>  <Experiment code>  (19) 
7gpy

>  <Pose>  (19) 
7gpy-a

$$$$
7gq1-a
     RDKit          3D

  8  8  0  0  0  0  0  0  0  0999 V2000
   12.3080   -3.6000   16.1070 C   0  0  0  0  0  0  0  0  0  0  0  0
   14.5390   -3.3810   17.1770 C   0  0  0  0  0  0  0  0  0  0  0  0
   15.6060   -2.6060   17.3050 O   0  0  0  0  0  0  0  0  0  0  0  0
   13.4470   -2.8590   16.2860 C   0  0  0  0  0  0  0  0  0  0  0  0
   13.4450   -1.6810   15.4530 C   0  0  0  0  0  0  0  0  0  0  0  0
   12.3420   -1.5640   14.6820 C   0  0  0  0  0  0  0  0  0  0  0  0
   14.4180   -4.5030   17.7210 O   0  0  0  0  0  0  0  0  0  0  0  0
   11.2720   -2.9260   14.9580 S   0  0  0  0  0  0  0  0  0  0  0  0
  6  5  2  0
  6  8  1  0
  5  4  1  0
  3  2  2  0
  4  2  1  0
  4  1  2  0
  8  1  1  0
  2  7  1  0
M  END
>  <id>  (20) 
20

>  <inchikey>  (20) 
YNVOMSDITJMNET-UHFFFAOYSA-N

>  <alias>  (20) 
7gq1-a

>  <smiles>  (20) 
O=C(O)c1ccsc1

>  <path>  (20) 
/opt/xchem-fragalysis-2/maxwin/BulkDock/TARGETS/D68EV3C/aligned_files/7gq1-a/7gq1-a_hippo.pdb

>  <distance_score>  (20) 
None

>  <energy_score>  (20) 
None

>  <compound>  (20) 
YNVOMSDITJMNET-UHFFFAOYSA-N

>  <compound_id>  (20) 
17

>  <target>  (20) 
D68EV3C

>  <tags>  (20) 
['BAD count', '[Other] upload_1 2025-02-11', 'hits', 'MEDIOCRE count', 'Main status', 'GOOD count']

>  <inspirations>  (20) 
None

>  <subsites>  (20) 
None

>  <reference>  (20) 


>  <observation_longname>  (20) 
7gq1_B_201_v1

>  <ConformerSites alias>  (20) 
2a - 7gon/B/201

>  <CanonSites alias>  (20) 
2 - 7gon/B/201/1

>  <CrystalformSites alias>  (20) 
F2j - 7gqb/B/201/1

>  <Quatassemblies alias>  (20) 
A1 - monomer

>  <Crystalforms alias>  (20) 
F2 - EVD68_Reference_20230131

>  <ConformerSites upload name>  (20) 
2a - 7gon/B/201

>  <CanonSites upload name>  (20) 
2 - 7gon/B/201/1

>  <CrystalformSites upload name>  (20) 
F2j - 7gqb/B/201/1

>  <Quatassemblies upload name>  (20) 
A1 - monomer

>  <Crystalforms upload name>  (20) 
F2 - EVD68_Reference_20230131

>  <ConformerSites short tag>  (20) 
2a - 7gon/B/201

>  <CanonSites short tag>  (20) 
2 - 7gon/B/201/1

>  <CrystalformSites short tag>  (20) 
F2j - 7gqb/B/201/1

>  <Quatassemblies short tag>  (20) 
A1 - monomer

>  <Crystalforms short tag>  (20) 
F2 - EVD68_Reference_20230131

>  <Centroid res>  (20) 
7gon/B/47/B_v1

>  <Experiment code>  (20) 
7gq1

>  <Pose>  (20) 
7gq1-a

$$$$
7gq1-c
     RDKit          3D

  8  8  0  0  0  0  0  0  0  0999 V2000
   -4.8600  -27.1610   12.9480 C   0  0  0  0  0  0  0  0  0  0  0  0
   -4.3250  -26.2740   10.6010 C   0  0  0  0  0  0  0  0  0  0  0  0
   -5.5750  -26.2980   10.2650 O   0  0  0  0  0  0  0  0  0  0  0  0
   -3.9620  -26.6570   12.0370 C   0  0  0  0  0  0  0  0  0  0  0  0
   -2.6850  -26.5540   12.6190 C   0  0  0  0  0  0  0  0  0  0  0  0
   -2.6380  -26.9920   13.8940 C   0  0  0  0  0  0  0  0  0  0  0  0
   -3.4400  -26.0510    9.7580 O   0  0  0  0  0  0  0  0  0  0  0  0
   -4.1190  -27.5300   14.4560 S   0  0  0  0  0  0  0  0  0  0  0  0
  6  5  2  0
  6  8  1  0
  5  4  1  0
  3  2  2  0
  4  2  1  0
  4  1  2  0
  8  1  1  0
  2  7  1  0
M  END
>  <id>  (21) 
21

>  <inchikey>  (21) 
YNVOMSDITJMNET-UHFFFAOYSA-N

>  <alias>  (21) 
7gq1-c

>  <smiles>  (21) 
O=C(O)c1ccsc1

>  <path>  (21) 
/opt/xchem-fragalysis-2/maxwin/BulkDock/TARGETS/D68EV3C/aligned_files/7gq1-c/7gq1-c.pdb

>  <distance_score>  (21) 
None

>  <energy_score>  (21) 
None

>  <compound>  (21) 
YNVOMSDITJMNET-UHFFFAOYSA-N

>  <compound_id>  (21) 
17

>  <target>  (21) 
D68EV3C

>  <tags>  (21) 
['BAD count', '[Other] upload_1 2025-02-11', 'hits', 'MEDIOCRE count', 'Main status', 'GOOD count']

>  <inspirations>  (21) 
None

>  <subsites>  (21) 
None

>  <reference>  (21) 


>  <observation_longname>  (21) 
7gq1_A_201_v1

>  <ConformerSites alias>  (21) 
25a - 7gq1/A/201

>  <CanonSites alias>  (21) 
25 - 7gq1/A/201/1

>  <CrystalformSites alias>  (21) 
F2av - 7gq1/A/201/1

>  <Quatassemblies alias>  (21) 
A1 - monomer

>  <Crystalforms alias>  (21) 
F2 - EVD68_Reference_20230131

>  <ConformerSites upload name>  (21) 
25a - 7gq1/A/201

>  <CanonSites upload name>  (21) 
25 - 7gq1/A/201/1

>  <CrystalformSites upload name>  (21) 
F2av - 7gq1/A/201/1

>  <Quatassemblies upload name>  (21) 
A1 - monomer

>  <Crystalforms upload name>  (21) 
F2 - EVD68_Reference_20230131

>  <ConformerSites short tag>  (21) 
25a - 7gq1/A/201

>  <CanonSites short tag>  (21) 
25 - 7gq1/A/201/1

>  <CrystalformSites short tag>  (21) 
F2av - 7gq1/A/201/1

>  <Quatassemblies short tag>  (21) 
A1 - monomer

>  <Crystalforms short tag>  (21) 
F2 - EVD68_Reference_20230131

>  <Centroid res>  (21) 
7gq1/A/9/A_v1

>  <Experiment code>  (21) 
7gq1

>  <Pose>  (21) 
7gq1-c

$$$$
7gq1-b
     RDKit          3D

  8  8  0  0  0  0  0  0  0  0999 V2000
    1.8580  -17.8530    9.7100 C   0  0  0  0  0  0  0  0  0  0  0  0
    3.5730  -16.8270    8.2120 C   0  0  0  0  0  0  0  0  0  0  0  0
    4.7350  -16.7980    7.8420 O   0  0  0  0  0  0  0  0  0  0  0  0
    3.1530  -17.7930    9.2670 C   0  0  0  0  0  0  0  0  0  0  0  0
    3.9790  -18.7460    9.9540 C   0  0  0  0  0  0  0  0  0  0  0  0
    3.2810  -19.4810   10.8830 C   0  0  0  0  0  0  0  0  0  0  0  0
    2.6380  -16.0450    7.7240 O   0  0  0  0  0  0  0  0  0  0  0  0
    1.6550  -19.0220   10.9120 S   0  0  0  0  0  0  0  0  0  0  0  0
  6  5  2  0
  6  8  1  0
  5  4  1  0
  3  2  2  0
  4  2  1  0
  4  1  2  0
  8  1  1  0
  2  7  1  0
M  END
>  <id>  (22) 
22

>  <inchikey>  (22) 
YNVOMSDITJMNET-UHFFFAOYSA-N

>  <alias>  (22) 
7gq1-b

>  <smiles>  (22) 
O=C(O)c1ccsc1

>  <path>  (22) 
/opt/xchem-fragalysis-2/maxwin/BulkDock/TARGETS/D68EV3C/aligned_files/7gq1-b/7gq1-b_hippo.pdb

>  <distance_score>  (22) 
None

>  <energy_score>  (22) 
None

>  <compound>  (22) 
YNVOMSDITJMNET-UHFFFAOYSA-N

>  <compound_id>  (22) 
17

>  <target>  (22) 
D68EV3C

>  <tags>  (22) 
['BAD count', '[Other] upload_1 2025-02-11', 'hits', 'MEDIOCRE count', 'Main status', 'GOOD count']

>  <inspirations>  (22) 
None

>  <subsites>  (22) 
None

>  <reference>  (22) 


>  <observation_longname>  (22) 
7gq1_B_202_v1

>  <ConformerSites alias>  (22) 
9a - 7gq1/B/202

>  <CanonSites alias>  (22) 
9 - 7gq1/B/202/1

>  <CrystalformSites alias>  (22) 
F2ae - 7gq1/B/202/1

>  <Quatassemblies alias>  (22) 
A1 - monomer

>  <Crystalforms alias>  (22) 
F2 - EVD68_Reference_20230131

>  <ConformerSites upload name>  (22) 
9a - 7gq1/B/202

>  <CanonSites upload name>  (22) 
9 - 7gq1/B/202/1

>  <CrystalformSites upload name>  (22) 
F2ae - 7gq1/B/202/1

>  <Quatassemblies upload name>  (22) 
A1 - monomer

>  <Crystalforms upload name>  (22) 
F2 - EVD68_Reference_20230131

>  <ConformerSites short tag>  (22) 
9a - 7gq1/B/202

>  <CanonSites short tag>  (22) 
9 - 7gq1/B/202/1

>  <CrystalformSites short tag>  (22) 
F2ae - 7gq1/B/202/1

>  <Quatassemblies short tag>  (22) 
A1 - monomer

>  <Crystalforms short tag>  (22) 
F2 - EVD68_Reference_20230131

>  <Centroid res>  (22) 
7gq1/B/14/B_v1

>  <Experiment code>  (22) 
7gq1

>  <Pose>  (22) 
7gq1-b

$$$$
7goe-a
     RDKit          3D

 18 20  0  0  0  0  0  0  0  0999 V2000
   15.4450   -1.0390   18.1470 C   0  0  0  0  0  0  0  0  0  0  0  0
   15.6640    0.3200   17.9630 C   0  0  0  0  0  0  0  0  0  0  0  0
   15.5660    1.2030   19.0280 C   0  0  0  0  0  0  0  0  0  0  0  0
   15.2530    0.7400   20.2900 C   0  0  0  0  0  0  0  0  0  0  0  0
   15.0410   -0.6080   20.4880 C   0  0  0  0  0  0  0  0  0  0  0  0
   14.2220   -2.1750   16.2360 C   0  0  0  0  0  0  0  0  0  0  0  0
   11.8140   -2.5240   14.8710 C   0  0  0  0  0  0  0  0  0  0  0  0
   13.2800   -3.0950   16.6790 C   0  0  0  0  0  0  0  0  0  0  0  0
   16.0720   -3.3230   17.4110 N   0  0  0  0  0  0  0  0  0  0  0  0
   17.7040   -4.6590   17.1260 C   0  0  0  0  0  0  0  0  0  0  0  0
   18.9040   -4.6480   16.3620 O   0  0  0  0  0  0  0  0  0  0  0  0
   16.4500   -4.2740   16.3290 C   0  0  0  0  0  0  0  0  0  0  0  0
   13.9350   -1.4320   15.0980 C   0  0  0  0  0  0  0  0  0  0  0  0
   12.7370   -1.6050   14.4220 C   0  0  0  0  0  0  0  0  0  0  0  0
   12.0850   -3.2700   15.9970 C   0  0  0  0  0  0  0  0  0  0  0  0
   17.4550   -3.3950   17.9590 C   0  0  0  0  0  0  0  0  0  0  0  0
   15.5450   -2.0080   16.9740 C   0  0  0  0  0  0  0  0  0  0  0  0
   15.1330   -1.4920   19.4240 C   0  0  0  0  0  0  0  0  0  0  0  0
 11 10  1  0
 10 16  1  0
 10 12  1  0
 16  9  1  0
 12  9  1  0
  9 17  1  0
 17  1  1  0
 17  6  1  0
  2  1  2  0
  2  3  1  0
  1 18  1  0
  3  4  2  0
 18  5  2  0
  6 13  2  0
  6  8  1  0
  4  5  1  0
 13 14  1  0
  8 15  2  0
 14  7  2  0
 15  7  1  0
M  END
>  <id>  (23) 
23

>  <inchikey>  (23) 
MMAJXKGUZYDTHV-UHFFFAOYSA-N

>  <alias>  (23) 
7goe-a

>  <smiles>  (23) 
OC1CN(C(c2ccccc2)c2ccccc2)C1

>  <path>  (23) 
/opt/xchem-fragalysis-2/maxwin/BulkDock/TARGETS/D68EV3C/aligned_files/7goe-a/7goe-a.pdb

>  <distance_score>  (23) 
None

>  <energy_score>  (23) 
None

>  <compound>  (23) 
MMAJXKGUZYDTHV-UHFFFAOYSA-N

>  <compound_id>  (23) 
18

>  <target>  (23) 
D68EV3C

>  <tags>  (23) 
['BAD count', '[Other] upload_1 2025-02-11', 'hits', 'MEDIOCRE count', 'Main status', 'GOOD count']

>  <inspirations>  (23) 
None

>  <subsites>  (23) 
None

>  <reference>  (23) 


>  <observation_longname>  (23) 
7goe_B_201_v1

>  <ConformerSites alias>  (23) 
2a - 7gon/B/201

>  <CanonSites alias>  (23) 
2 - 7gon/B/201/1

>  <CrystalformSites alias>  (23) 
F2j - 7gqb/B/201/1

>  <Quatassemblies alias>  (23) 
A1 - monomer

>  <Crystalforms alias>  (23) 
F2 - EVD68_Reference_20230131

>  <ConformerSites upload name>  (23) 
2a - 7gon/B/201

>  <CanonSites upload name>  (23) 
2 - 7gon/B/201/1

>  <CrystalformSites upload name>  (23) 
F2j - 7gqb/B/201/1

>  <Quatassemblies upload name>  (23) 
A1 - monomer

>  <Crystalforms upload name>  (23) 
F2 - EVD68_Reference_20230131

>  <ConformerSites short tag>  (23) 
2a - 7gon/B/201

>  <CanonSites short tag>  (23) 
2 - 7gon/B/201/1

>  <CrystalformSites short tag>  (23) 
F2j - 7gqb/B/201/1

>  <Quatassemblies short tag>  (23) 
A1 - monomer

>  <Crystalforms short tag>  (23) 
F2 - EVD68_Reference_20230131

>  <Centroid res>  (23) 
7gon/B/47/B_v1

>  <Experiment code>  (23) 
7goe

>  <Pose>  (23) 
7goe-a

$$$$
7gpj-a
     RDKit          3D

 19 20  0  0  0  0  0  0  0  0999 V2000
   -8.8150   -2.9590    7.6600 N   0  0  0  0  0  0  0  0  0  0  0  0
   -5.5640    1.9660    4.1790 C   0  0  0  0  0  0  0  0  0  0  0  0
   -5.8830    0.6200    4.2590 C   0  0  0  0  0  0  0  0  0  0  0  0
   -5.4690   -0.1310    5.3590 C   0  0  0  0  0  0  0  0  0  0  0  0
   -5.7480   -1.6120    5.3500 C   0  0  0  0  0  0  0  0  0  0  0  0
   -7.1960   -3.5000    5.8890 C   0  0  0  0  0  0  0  0  0  0  0  0
   -8.5710   -1.6660    7.6110 C   0  0  0  0  0  0  0  0  0  0  0  0
   -6.9050   -2.0570    5.8700 N   0  0  0  0  0  0  0  0  0  0  0  0
   -4.3280   -0.2490    7.6460 C   0  0  0  0  0  0  0  0  0  0  0  0
   -4.9200   -2.3700    4.8760 O   0  0  0  0  0  0  0  0  0  0  0  0
   -4.7510    0.4910    6.3990 C   0  0  0  0  0  0  0  0  0  0  0  0
   -7.9180   -1.1370    6.3720 C   0  0  0  0  0  0  0  0  0  0  0  0
   -4.4470    1.8430    6.2960 C   0  0  0  0  0  0  0  0  0  0  0  0
   -4.8460    2.5700    5.1850 C   0  0  0  0  0  0  0  0  0  0  0  0
   -8.4330   -3.9330    6.6570 C   0  0  0  0  0  0  0  0  0  0  0  0
   -5.3400   -0.4790    8.4600 F   0  0  0  0  0  0  0  0  0  0  0  0
   -3.8150   -1.4370    7.3960 F   0  0  0  0  0  0  0  0  0  0  0  0
   -3.4090    0.4090    8.3650 F   0  0  0  0  0  0  0  0  0  0  0  0
   -8.8220   -0.9140    8.5440 O   0  0  0  0  0  0  0  0  0  0  0  0
  2 14  2  0
  2  3  1  0
 14 13  1  0
  3  4  2  0
 13 11  2  0
  4 11  1  0
  4  5  1  0
 11  9  1  0
 18  9  1  0
 10  5  2  0
  5  8  1  0
  9 17  1  0
  9 16  1  0
  8 12  1  0
  8  6  1  0
 12  7  1  0
  6 15  1  0
  7 19  2  0
  7  1  1  0
 15  1  1  0
M  END
>  <id>  (24) 
24

>  <inchikey>  (24) 
JQOVYBILMPXMLQ-UHFFFAOYSA-N

>  <alias>  (24) 
7gpj-a

>  <smiles>  (24) 
O=C1CN(C(=O)c2ccccc2C(F)(F)F)CCN1

>  <path>  (24) 
/opt/xchem-fragalysis-2/maxwin/BulkDock/TARGETS/D68EV3C/aligned_files/7gpj-a/7gpj-a.pdb

>  <distance_score>  (24) 
None

>  <energy_score>  (24) 
None

>  <compound>  (24) 
JQOVYBILMPXMLQ-UHFFFAOYSA-N

>  <compound_id>  (24) 
19

>  <target>  (24) 
D68EV3C

>  <tags>  (24) 
['BAD count', '[Other] upload_1 2025-02-11', 'hits', 'MEDIOCRE count', 'Main status', 'GOOD count']

>  <inspirations>  (24) 
None

>  <subsites>  (24) 
None

>  <reference>  (24) 


>  <observation_longname>  (24) 
7gpj_B_201_v1

>  <ConformerSites alias>  (24) 
3a - 7gpw/B/202

>  <CanonSites alias>  (24) 
3 - 7gpw/B/202/1

>  <CrystalformSites alias>  (24) 
F2l - 7go5/B/401/1

>  <Quatassemblies alias>  (24) 
A1 - monomer

>  <Crystalforms alias>  (24) 
F2 - EVD68_Reference_20230131

>  <ConformerSites upload name>  (24) 
3a - 7gpw/B/202

>  <CanonSites upload name>  (24) 
3 - 7gpw/B/202/1

>  <CrystalformSites upload name>  (24) 
F2l - 7go5/B/401/1

>  <Quatassemblies upload name>  (24) 
A1 - monomer

>  <Crystalforms upload name>  (24) 
F2 - EVD68_Reference_20230131

>  <ConformerSites short tag>  (24) 
3a - 7gpw/B/202

>  <CanonSites short tag>  (24) 
3 - 7gpw/B/202/1

>  <CrystalformSites short tag>  (24) 
F2l - 7go5/B/401/1

>  <Quatassemblies short tag>  (24) 
A1 - monomer

>  <Crystalforms short tag>  (24) 
F2 - EVD68_Reference_20230131

>  <Centroid res>  (24) 
7gpw/B/74/B_v1

>  <Experiment code>  (24) 
7gpj

>  <Pose>  (24) 
7gpj-a

$$$$
7gq4-a
     RDKit          3D

  6  6  0  0  0  0  0  0  0  0999 V2000
   -0.9690   -7.4160   34.7270 C   0  0  0  0  0  0  0  0  0  0  0  0
   -1.0210   -7.4860   33.2430 C   0  0  0  0  0  0  0  0  0  0  0  0
   -0.2370   -6.8170   32.4350 N   0  0  0  0  0  0  0  0  0  0  0  0
   -0.5580   -7.2160   31.1740 N   0  0  0  0  0  0  0  0  0  0  0  0
   -1.5080   -8.0900   31.1960 N   0  0  0  0  0  0  0  0  0  0  0  0
   -1.8210   -8.2680   32.4960 N   0  0  0  0  0  0  0  0  0  0  0  0
  2  1  1  0
  3  2  2  0
  4  3  1  0
  5  4  2  0
  6  5  1  0
  2  6  1  0
M  END
>  <id>  (25) 
25

>  <inchikey>  (25) 
XZGLNCKSNVGDNX-UHFFFAOYSA-N

>  <alias>  (25) 
7gq4-a

>  <smiles>  (25) 
Cc1nnn[nH]1

>  <path>  (25) 
/opt/xchem-fragalysis-2/maxwin/BulkDock/TARGETS/D68EV3C/aligned_files/7gq4-a/7gq4-a.pdb

>  <distance_score>  (25) 
None

>  <energy_score>  (25) 
None

>  <compound>  (25) 
XZGLNCKSNVGDNX-UHFFFAOYSA-N

>  <compound_id>  (25) 
20

>  <target>  (25) 
D68EV3C

>  <tags>  (25) 
['BAD count', '[Other] upload_1 2025-02-11', '[Other] iter1_frags', 'hits', 'MEDIOCRE count', 'Main status', 'GOOD count']

>  <inspirations>  (25) 
None

>  <subsites>  (25) 
None

>  <reference>  (25) 


>  <observation_longname>  (25) 
7gq4_A_201_v1

>  <ConformerSites alias>  (25) 
1a - 7gp9/A/201

>  <CanonSites alias>  (25) 
1 - 7gp9/A/201/1

>  <CrystalformSites alias>  (25) 
F2b - 7gp9/A/201/1

>  <Quatassemblies alias>  (25) 
A1 - monomer

>  <Crystalforms alias>  (25) 
F2 - EVD68_Reference_20230131

>  <ConformerSites upload name>  (25) 
1a - 7gp9/A/201

>  <CanonSites upload name>  (25) 
1 - 7gp9/A/201/1

>  <CrystalformSites upload name>  (25) 
F2b - 7gp9/A/201/1

>  <Quatassemblies upload name>  (25) 
A1 - monomer

>  <Crystalforms upload name>  (25) 
F2 - EVD68_Reference_20230131

>  <ConformerSites short tag>  (25) 
1a - 7gp9/A/201

>  <CanonSites short tag>  (25) 
1 - 7gp9/A/201/1

>  <CrystalformSites short tag>  (25) 
F2b - 7gp9/A/201/1

>  <Quatassemblies short tag>  (25) 
A1 - monomer

>  <Crystalforms short tag>  (25) 
F2 - EVD68_Reference_20230131

>  <Centroid res>  (25) 
7gp9/A/163/A_v1

>  <Experiment code>  (25) 
7gq4

>  <Pose>  (25) 
7gq4-a

$$$$
7gps-a
     RDKit          3D

 15 17  0  0  0  0  0  0  0  0999 V2000
   14.7430    0.9630   13.4930 N   0  0  0  0  0  0  0  0  0  0  0  0
   12.1360   -3.3290   15.7320 C   0  0  0  0  0  0  0  0  0  0  0  0
   13.1590   -3.5530   16.6250 C   0  0  0  0  0  0  0  0  0  0  0  0
   14.0950   -2.5640   16.8780 C   0  0  0  0  0  0  0  0  0  0  0  0
   12.7590    0.2570   14.6890 C   0  0  0  0  0  0  0  0  0  0  0  0
   13.9970    1.1640   14.7470 C   0  0  1  0  0  0  0  0  0  0  0  0
   14.6080    3.3140   13.7890 C   0  0  0  0  0  0  0  0  0  0  0  0
   15.7580    1.7470   16.2300 O   0  0  0  0  0  0  0  0  0  0  0  0
   14.9600    0.8830   15.8890 C   0  0  0  0  0  0  0  0  0  0  0  0
   13.6160    2.6590   14.7380 C   0  0  0  0  0  0  0  0  0  0  0  0
   14.9040    2.2330   12.7690 C   0  0  0  0  0  0  0  0  0  0  0  0
   12.9490   -1.0930   15.3240 C   0  0  0  0  0  0  0  0  0  0  0  0
   12.0340   -2.1140   15.0800 C   0  0  0  0  0  0  0  0  0  0  0  0
   13.9910   -1.3330   16.2310 C   0  0  0  0  0  0  0  0  0  0  0  0
   14.9140   -0.3200   16.4900 N   0  0  0  0  0  0  0  0  0  0  0  0
 11  7  1  0
 11  1  1  0
  7 10  1  0
  1  6  1  0
  6 10  1  1
  8  9  2  0
  6  9  1  0
  6  5  1  0
  9 15  1  0
  5 12  1  0
 15 14  1  0
 12 14  2  0
 12 13  1  0
 14  4  1  0
 13  2  2  0
  4  3  2  0
  2  3  1  0
M  END
>  <id>  (26) 
26

>  <inchikey>  (26) 
ABOZUPQQWCLVDB-LBPRGKRZSA-N

>  <alias>  (26) 
7gps-a

>  <smiles>  (26) 
O=C1Nc2ccccc2C[C@@]12CCCN2

>  <path>  (26) 
/opt/xchem-fragalysis-2/maxwin/BulkDock/TARGETS/D68EV3C/aligned_files/7gps-a/7gps-a.pdb

>  <distance_score>  (26) 
None

>  <energy_score>  (26) 
None

>  <compound>  (26) 
ABOZUPQQWCLVDB-UHFFFAOYSA-N

>  <compound_id>  (26) 
21

>  <target>  (26) 
D68EV3C

>  <tags>  (26) 
['BAD count', '[Other] upload_1 2025-02-11', 'hits', 'MEDIOCRE count', 'Main status', 'GOOD count']

>  <inspirations>  (26) 
None

>  <subsites>  (26) 
None

>  <reference>  (26) 


>  <observation_longname>  (26) 
7gps_B_201_v1

>  <ConformerSites alias>  (26) 
2a - 7gon/B/201

>  <CanonSites alias>  (26) 
2 - 7gon/B/201/1

>  <CrystalformSites alias>  (26) 
F2j - 7gqb/B/201/1

>  <Quatassemblies alias>  (26) 
A1 - monomer

>  <Crystalforms alias>  (26) 
F2 - EVD68_Reference_20230131

>  <ConformerSites upload name>  (26) 
2a - 7gon/B/201

>  <CanonSites upload name>  (26) 
2 - 7gon/B/201/1

>  <CrystalformSites upload name>  (26) 
F2j - 7gqb/B/201/1

>  <Quatassemblies upload name>  (26) 
A1 - monomer

>  <Crystalforms upload name>  (26) 
F2 - EVD68_Reference_20230131

>  <ConformerSites short tag>  (26) 
2a - 7gon/B/201

>  <CanonSites short tag>  (26) 
2 - 7gon/B/201/1

>  <CrystalformSites short tag>  (26) 
F2j - 7gqb/B/201/1

>  <Quatassemblies short tag>  (26) 
A1 - monomer

>  <Crystalforms short tag>  (26) 
F2 - EVD68_Reference_20230131

>  <Centroid res>  (26) 
7gon/B/47/B_v1

>  <Experiment code>  (26) 
7gps

>  <Pose>  (26) 
7gps-a

$$$$
7god-a
     RDKit          3D

 15 15  0  0  0  0  0  0  0  0999 V2000
   14.1040   -2.8480   18.1710 N   0  0  0  0  0  0  0  0  0  0  0  0
   13.8540   -0.3380   16.9480 C   0  0  0  0  0  0  0  0  0  0  0  0
   13.3580    1.0640   16.6610 C   0  0  0  0  0  0  0  0  0  0  0  0
   13.4130   -2.8020   17.0070 C   0  0  0  0  0  0  0  0  0  0  0  0
   15.0270   -3.8450   18.5650 C   0  0  0  0  0  0  0  0  0  0  0  0
   16.0180   -4.2810   17.6820 C   0  0  0  0  0  0  0  0  0  0  0  0
   17.0730   -5.5010   19.4590 C   0  0  0  0  0  0  0  0  0  0  0  0
   11.3110   -2.4570   14.8860 C   0  0  0  0  0  0  0  0  0  0  0  0
   12.3700   -1.4310   15.2090 C   0  0  0  0  0  0  0  0  0  0  0  0
   12.8140   -1.4420   16.6800 C   0  0  0  0  0  0  0  0  0  0  0  0
   13.3680   -3.7360   16.2100 O   0  0  0  0  0  0  0  0  0  0  0  0
   17.0350   -5.1050   18.1360 C   0  0  0  0  0  0  0  0  0  0  0  0
   16.0760   -5.1010   20.3390 C   0  0  0  0  0  0  0  0  0  0  0  0
   15.0360   -4.2840   19.8950 C   0  0  0  0  0  0  0  0  0  0  0  0
   13.8160   -4.4910   20.4640 O   0  0  0  0  0  0  0  0  0  0  0  0
 12  6  1  0
 12  7  2  0
 11  4  2  0
  6  5  2  0
  7 13  1  0
  4  1  1  0
  4 10  1  0
  2  3  1  0
  2 10  1  0
  5  1  1  0
  5 14  1  0
 13 14  2  0
  9 10  1  0
  9  8  1  0
 14 15  1  0
M  END
>  <id>  (27) 
27

>  <inchikey>  (27) 
ZHIXKMXOQAKAKN-UHFFFAOYSA-N

>  <alias>  (27) 
7god-a

>  <smiles>  (27) 
CCC(CC)C(=O)Nc1ccccc1O

>  <path>  (27) 
/opt/xchem-fragalysis-2/maxwin/BulkDock/TARGETS/D68EV3C/aligned_files/7god-a/7god-a.pdb

>  <distance_score>  (27) 
None

>  <energy_score>  (27) 
None

>  <compound>  (27) 
ZHIXKMXOQAKAKN-UHFFFAOYSA-N

>  <compound_id>  (27) 
22

>  <target>  (27) 
D68EV3C

>  <tags>  (27) 
['BAD count', '[Other] upload_1 2025-02-11', 'hits', 'MEDIOCRE count', 'Main status', 'GOOD count']

>  <inspirations>  (27) 
None

>  <subsites>  (27) 
None

>  <reference>  (27) 


>  <observation_longname>  (27) 
7god_B_201_v1

>  <ConformerSites alias>  (27) 
2a - 7gon/B/201

>  <CanonSites alias>  (27) 
2 - 7gon/B/201/1

>  <CrystalformSites alias>  (27) 
F2j - 7gqb/B/201/1

>  <Quatassemblies alias>  (27) 
A1 - monomer

>  <Crystalforms alias>  (27) 
F2 - EVD68_Reference_20230131

>  <ConformerSites upload name>  (27) 
2a - 7gon/B/201

>  <CanonSites upload name>  (27) 
2 - 7gon/B/201/1

>  <CrystalformSites upload name>  (27) 
F2j - 7gqb/B/201/1

>  <Quatassemblies upload name>  (27) 
A1 - monomer

>  <Crystalforms upload name>  (27) 
F2 - EVD68_Reference_20230131

>  <ConformerSites short tag>  (27) 
2a - 7gon/B/201

>  <CanonSites short tag>  (27) 
2 - 7gon/B/201/1

>  <CrystalformSites short tag>  (27) 
F2j - 7gqb/B/201/1

>  <Quatassemblies short tag>  (27) 
A1 - monomer

>  <Crystalforms short tag>  (27) 
F2 - EVD68_Reference_20230131

>  <Centroid res>  (27) 
7gon/B/47/B_v1

>  <Experiment code>  (27) 
7god

>  <Pose>  (27) 
7god-a

$$$$
7gow-a
     RDKit          3D

 14 15  0  0  0  0  0  0  0  0999 V2000
  -11.3380  -26.4930   11.4760 N   0  0  0  0  0  0  0  0  0  0  0  0
  -12.6880  -28.4160   10.7840 C   0  0  0  0  0  0  0  0  0  0  0  0
  -10.8240  -25.2580   11.3840 C   0  0  0  0  0  0  0  0  0  0  0  0
  -10.0570  -24.7210   12.5930 C   0  0  1  0  0  0  0  0  0  0  0  0
   -8.8870  -23.8950   12.1970 C   0  0  0  0  0  0  0  0  0  0  0  0
   -9.1940  -22.5050   12.7110 C   0  0  0  0  0  0  0  0  0  0  0  0
  -12.0740  -29.3420   11.7390 N   0  0  0  0  0  0  0  0  0  0  0  0
  -11.3650  -30.4250   11.0390 C   0  0  0  0  0  0  0  0  0  0  0  0
  -10.9490  -24.5860   10.3770 O   0  0  0  0  0  0  0  0  0  0  0  0
  -11.1690  -28.6160   12.6340 C   0  0  0  0  0  0  0  0  0  0  0  0
  -11.5770  -27.1700   12.7510 C   0  0  0  0  0  0  0  0  0  0  0  0
  -11.6960  -27.3470   10.3400 C   0  0  0  0  0  0  0  0  0  0  0  0
  -10.1580  -22.7660   13.8020 C   0  0  0  0  0  0  0  0  0  0  0  0
  -10.9160  -23.9140   13.4050 O   0  0  0  0  0  0  0  0  0  0  0  0
  8  7  1  0
  7 10  1  0
  7  2  1  0
 10 11  1  0
  2 12  1  0
 12  1  1  0
 11  1  1  0
  1  3  1  0
  4  3  1  6
  3  9  2  0
  4  5  1  0
  4 14  1  0
  5  6  1  0
 14 13  1  0
 13  6  1  0
M  END
>  <id>  (28) 
28

>  <inchikey>  (28) 
ZSHARPJAQXGCMB-SECBINFHSA-N

>  <alias>  (28) 
7gow-a

>  <smiles>  (28) 
CN1CCN(C(=O)[C@H]2CCCO2)CC1

>  <path>  (28) 
/opt/xchem-fragalysis-2/maxwin/BulkDock/TARGETS/D68EV3C/aligned_files/7gow-a/7gow-a.pdb

>  <distance_score>  (28) 
None

>  <energy_score>  (28) 
None

>  <compound>  (28) 
ZSHARPJAQXGCMB-UHFFFAOYSA-N

>  <compound_id>  (28) 
23

>  <target>  (28) 
D68EV3C

>  <tags>  (28) 
['BAD count', '[Other] upload_1 2025-02-11', 'hits', 'MEDIOCRE count', 'Main status', 'GOOD count']

>  <inspirations>  (28) 
None

>  <subsites>  (28) 
None

>  <reference>  (28) 


>  <observation_longname>  (28) 
7gow_A_201_v1

>  <ConformerSites alias>  (28) 
4a - 7gp7/A/201

>  <CanonSites alias>  (28) 
4 - 7gp7/A/201/1

>  <CrystalformSites alias>  (28) 
F2q - 7gp7/A/201/1

>  <Quatassemblies alias>  (28) 
A1 - monomer

>  <Crystalforms alias>  (28) 
F2 - EVD68_Reference_20230131

>  <ConformerSites upload name>  (28) 
4a - 7gp7/A/201

>  <CanonSites upload name>  (28) 
4 - 7gp7/A/201/1

>  <CrystalformSites upload name>  (28) 
F2q - 7gp7/A/201/1

>  <Quatassemblies upload name>  (28) 
A1 - monomer

>  <Crystalforms upload name>  (28) 
F2 - EVD68_Reference_20230131

>  <ConformerSites short tag>  (28) 
4a - 7gp7/A/201

>  <CanonSites short tag>  (28) 
4 - 7gp7/A/201/1

>  <CrystalformSites short tag>  (28) 
F2q - 7gp7/A/201/1

>  <Quatassemblies short tag>  (28) 
A1 - monomer

>  <Crystalforms short tag>  (28) 
F2 - EVD68_Reference_20230131

>  <Centroid res>  (28) 
7gp7/A/6/A_v1

>  <Experiment code>  (28) 
7gow

>  <Pose>  (28) 
7gow-a

$$$$
7gof-a
     RDKit          3D

 18 19  0  0  0  0  0  0  0  0999 V2000
   16.6120   -1.8980   11.8960 N   0  0  0  0  0  0  0  0  0  0  0  0
   15.3470   -1.7290   12.6380 C   0  0  0  0  0  0  0  0  0  0  0  0
   15.2570   -0.4680   13.4960 C   0  0  0  0  0  0  0  0  0  0  0  0
   13.9040   -0.2000   14.1760 C   0  0  0  0  0  0  0  0  0  0  0  0
   13.3750   -1.3450   15.0090 C   0  0  0  0  0  0  0  0  0  0  0  0
   12.1510   -1.9280   14.7150 C   0  0  0  0  0  0  0  0  0  0  0  0
   12.4580   -3.5430   16.4600 C   0  0  0  0  0  0  0  0  0  0  0  0
   16.6050   -1.1690   10.6230 C   0  0  0  0  0  0  0  0  0  0  0  0
   18.8760   -2.0890   10.5530 N   0  0  0  0  0  0  0  0  0  0  0  0
   19.9770   -3.2700    8.7100 C   0  0  0  0  0  0  0  0  0  0  0  0
   20.3330   -3.7320   11.0060 O   0  0  0  0  0  0  0  0  0  0  0  0
   19.7440   -3.0620   10.1750 C   0  0  0  0  0  0  0  0  0  0  0  0
   13.6680   -2.9640   16.7740 C   0  0  0  0  0  0  0  0  0  0  0  0
   14.1240   -1.8700   16.0540 C   0  0  0  0  0  0  0  0  0  0  0  0
   17.7410   -1.6440    9.7360 C   0  0  0  0  0  0  0  0  0  0  0  0
   19.0220   -1.3280   11.8000 C   0  0  0  0  0  0  0  0  0  0  0  0
   17.7880   -1.4870   12.6840 C   0  0  0  0  0  0  0  0  0  0  0  0
   11.6960   -3.0220   15.4350 C   0  0  0  0  0  0  0  0  0  0  0  0
 10 12  1  0
 15  9  1  0
 15  8  1  0
  9 12  1  0
  9 16  1  0
 12 11  2  0
 16 17  1  0
  8  1  1  0
 17  1  1  0
  1  2  1  0
  3  2  2  0
  3  4  1  0
  4  5  1  0
  5  6  2  0
  5 14  1  0
  6 18  1  0
 14 13  2  0
 18  7  2  0
 13  7  1  0
M  END
>  <id>  (29) 
29

>  <inchikey>  (29) 
ZITAIQWIBNEJAO-WEVVVXLNSA-N

>  <alias>  (29) 
7gof-a

>  <smiles>  (29) 
CC(=O)N1CCN(/C=C/Cc2ccccc2)CC1

>  <path>  (29) 
/opt/xchem-fragalysis-2/maxwin/BulkDock/TARGETS/D68EV3C/aligned_files/7gof-a/7gof-a.pdb

>  <distance_score>  (29) 
None

>  <energy_score>  (29) 
None

>  <compound>  (29) 
ZITAIQWIBNEJAO-UHFFFAOYSA-N

>  <compound_id>  (29) 
24

>  <target>  (29) 
D68EV3C

>  <tags>  (29) 
['BAD count', '[Other] upload_1 2025-02-11', 'hits', 'MEDIOCRE count', 'Main status', 'GOOD count']

>  <inspirations>  (29) 
None

>  <subsites>  (29) 
None

>  <reference>  (29) 


>  <observation_longname>  (29) 
7gof_B_201_v1

>  <ConformerSites alias>  (29) 
2a - 7gon/B/201

>  <CanonSites alias>  (29) 
2 - 7gon/B/201/1

>  <CrystalformSites alias>  (29) 
F2j - 7gqb/B/201/1

>  <Quatassemblies alias>  (29) 
A1 - monomer

>  <Crystalforms alias>  (29) 
F2 - EVD68_Reference_20230131

>  <ConformerSites upload name>  (29) 
2a - 7gon/B/201

>  <CanonSites upload name>  (29) 
2 - 7gon/B/201/1

>  <CrystalformSites upload name>  (29) 
F2j - 7gqb/B/201/1

>  <Quatassemblies upload name>  (29) 
A1 - monomer

>  <Crystalforms upload name>  (29) 
F2 - EVD68_Reference_20230131

>  <ConformerSites short tag>  (29) 
2a - 7gon/B/201

>  <CanonSites short tag>  (29) 
2 - 7gon/B/201/1

>  <CrystalformSites short tag>  (29) 
F2j - 7gqb/B/201/1

>  <Quatassemblies short tag>  (29) 
A1 - monomer

>  <Crystalforms short tag>  (29) 
F2 - EVD68_Reference_20230131

>  <Centroid res>  (29) 
7gon/B/47/B_v1

>  <Experiment code>  (29) 
7gof

>  <Pose>  (29) 
7gof-a

$$$$
7gpp-a
     RDKit          3D

 13 13  0  0  0  0  0  0  0  0999 V2000
  -13.9700  -25.2260   13.0770 C   0  0  0  0  0  0  0  0  0  0  0  0
  -13.2690  -26.2220   14.0040 C   0  0  2  0  0  0  0  0  0  0  0  0
  -13.4090  -25.8600   15.4770 C   0  0  0  0  0  0  0  0  0  0  0  0
  -10.3340  -24.4260   12.5420 C   0  0  0  0  0  0  0  0  0  0  0  0
   -9.4940  -22.5000   13.6160 C   0  0  0  0  0  0  0  0  0  0  0  0
  -11.8600  -26.1750   13.5330 N   0  0  0  0  0  0  0  0  0  0  0  0
  -10.6580  -27.2890   15.3680 C   0  0  0  0  0  0  0  0  0  0  0  0
  -10.0680  -27.4450   13.0690 O   0  0  0  0  0  0  0  0  0  0  0  0
  -10.8280  -26.9850   13.9080 C   0  0  0  0  0  0  0  0  0  0  0  0
  -11.6540  -25.1850   12.4730 C   0  0  1  0  0  0  0  0  0  0  0  0
  -12.8600  -24.2630   12.6420 C   0  0  0  0  0  0  0  0  0  0  0  0
   -9.5170  -24.4160   11.6660 O   0  0  0  0  0  0  0  0  0  0  0  0
  -10.1960  -23.7690   13.6860 O   0  0  0  0  0  0  0  0  0  0  0  0
  8  9  2  0
  7  9  1  0
  9  6  1  0
  6  2  1  0
  6 10  1  0
  2  3  1  1
  2  1  1  0
 10  4  1  1
 10 11  1  0
  1 11  1  0
 12  4  2  0
  4 13  1  0
 13  5  1  0
M  END
>  <id>  (30) 
30

>  <inchikey>  (30) 
OZKGZCZMUGXZPD-XPUUQOCRSA-N

>  <alias>  (30) 
7gpp-a

>  <smiles>  (30) 
COC(=O)[C@@H]1CC[C@H](C)N1C(C)=O

>  <path>  (30) 
/opt/xchem-fragalysis-2/maxwin/BulkDock/TARGETS/D68EV3C/aligned_files/7gpp-a/7gpp-a.pdb

>  <distance_score>  (30) 
None

>  <energy_score>  (30) 
None

>  <compound>  (30) 
OZKGZCZMUGXZPD-UHFFFAOYSA-N

>  <compound_id>  (30) 
25

>  <target>  (30) 
D68EV3C

>  <tags>  (30) 
['BAD count', '[Other] upload_1 2025-02-11', 'hits', 'MEDIOCRE count', 'Main status', 'GOOD count']

>  <inspirations>  (30) 
None

>  <subsites>  (30) 
None

>  <reference>  (30) 


>  <observation_longname>  (30) 
7gpp_A_201_v1

>  <ConformerSites alias>  (30) 
4a - 7gp7/A/201

>  <CanonSites alias>  (30) 
4 - 7gp7/A/201/1

>  <CrystalformSites alias>  (30) 
F2q - 7gp7/A/201/1

>  <Quatassemblies alias>  (30) 
A1 - monomer

>  <Crystalforms alias>  (30) 
F2 - EVD68_Reference_20230131

>  <ConformerSites upload name>  (30) 
4a - 7gp7/A/201

>  <CanonSites upload name>  (30) 
4 - 7gp7/A/201/1

>  <CrystalformSites upload name>  (30) 
F2q - 7gp7/A/201/1

>  <Quatassemblies upload name>  (30) 
A1 - monomer

>  <Crystalforms upload name>  (30) 
F2 - EVD68_Reference_20230131

>  <ConformerSites short tag>  (30) 
4a - 7gp7/A/201

>  <CanonSites short tag>  (30) 
4 - 7gp7/A/201/1

>  <CrystalformSites short tag>  (30) 
F2q - 7gp7/A/201/1

>  <Quatassemblies short tag>  (30) 
A1 - monomer

>  <Crystalforms short tag>  (30) 
F2 - EVD68_Reference_20230131

>  <Centroid res>  (30) 
7gp7/A/6/A_v1

>  <Experiment code>  (30) 
7gpp

>  <Pose>  (30) 
7gpp-a

$$$$
7gog-a
     RDKit          3D

 15 16  0  0  0  0  0  0  0  0999 V2000
   15.8910   -1.6880   12.8870 N   0  0  0  0  0  0  0  0  0  0  0  0
   14.3950   -0.3570   14.3890 C   0  0  0  0  0  0  0  0  0  0  0  0
   13.5550   -1.4310   15.0390 C   0  0  0  0  0  0  0  0  0  0  0  0
   12.2930   -1.7390   14.5530 C   0  0  0  0  0  0  0  0  0  0  0  0
   11.5470   -2.7590   15.1200 C   0  0  0  0  0  0  0  0  0  0  0  0
   12.0480   -3.4740   16.1830 C   0  0  0  0  0  0  0  0  0  0  0  0
   14.0430   -2.1570   16.1150 C   0  0  0  0  0  0  0  0  0  0  0  0
   18.2760   -2.8900   11.7430 N   0  0  0  0  0  0  0  0  0  0  0  0
   17.9480   -1.3630    9.8850 C   0  0  0  0  0  0  0  0  0  0  0  0
   15.4180   -0.7140   10.9740 O   0  0  0  0  0  0  0  0  0  0  0  0
   17.2600   -2.3090   10.8640 C   0  0  2  0  0  0  0  0  0  0  0  0
   16.1680   -1.6140   11.6280 C   0  0  0  0  0  0  0  0  0  0  0  0
   14.9220   -0.7310   13.0410 C   0  0  0  0  0  0  0  0  0  0  0  0
   13.2900   -3.1670   16.6860 C   0  0  0  0  0  0  0  0  0  0  0  0
   14.5790   -0.1220   11.9480 N   0  0  0  0  0  0  0  0  0  0  0  0
 11  9  1  6
 10 15  1  0
 10 12  1  0
 11 12  1  0
 11  8  1  0
 15 13  2  0
 12  1  2  0
 13  1  1  0
 13  2  1  0
  2  3  1  0
  3  4  2  0
  3  7  1  0
  4  5  1  0
  7 14  2  0
  5  6  2  0
 14  6  1  0
M  END
>  <id>  (31) 
31

>  <inchikey>  (31) 
TXLVGLOXMNZBCL-MRVPVSSYSA-N

>  <alias>  (31) 
7gog-a

>  <smiles>  (31) 
C[C@@H](N)c1nc(Cc2ccccc2)no1

>  <path>  (31) 
/opt/xchem-fragalysis-2/maxwin/BulkDock/TARGETS/D68EV3C/aligned_files/7gog-a/7gog-a.pdb

>  <distance_score>  (31) 
None

>  <energy_score>  (31) 
None

>  <compound>  (31) 
TXLVGLOXMNZBCL-UHFFFAOYSA-N

>  <compound_id>  (31) 
26

>  <target>  (31) 
D68EV3C

>  <tags>  (31) 
['BAD count', '[Other] upload_1 2025-02-11', 'hits', 'MEDIOCRE count', 'Main status', 'GOOD count']

>  <inspirations>  (31) 
None

>  <subsites>  (31) 
None

>  <reference>  (31) 


>  <observation_longname>  (31) 
7gog_B_201_v1

>  <ConformerSites alias>  (31) 
2a - 7gon/B/201

>  <CanonSites alias>  (31) 
2 - 7gon/B/201/1

>  <CrystalformSites alias>  (31) 
F2j - 7gqb/B/201/1

>  <Quatassemblies alias>  (31) 
A1 - monomer

>  <Crystalforms alias>  (31) 
F2 - EVD68_Reference_20230131

>  <ConformerSites upload name>  (31) 
2a - 7gon/B/201

>  <CanonSites upload name>  (31) 
2 - 7gon/B/201/1

>  <CrystalformSites upload name>  (31) 
F2j - 7gqb/B/201/1

>  <Quatassemblies upload name>  (31) 
A1 - monomer

>  <Crystalforms upload name>  (31) 
F2 - EVD68_Reference_20230131

>  <ConformerSites short tag>  (31) 
2a - 7gon/B/201

>  <CanonSites short tag>  (31) 
2 - 7gon/B/201/1

>  <CrystalformSites short tag>  (31) 
F2j - 7gqb/B/201/1

>  <Quatassemblies short tag>  (31) 
A1 - monomer

>  <Crystalforms short tag>  (31) 
F2 - EVD68_Reference_20230131

>  <Centroid res>  (31) 
7gon/B/47/B_v1

>  <Experiment code>  (31) 
7gog

>  <Pose>  (31) 
7gog-a

$$$$
7goh-a
     RDKit          3D

 14 15  0  0  0  0  0  0  0  0999 V2000
  -11.3410  -21.9420   31.4650 N   0  0  0  0  0  0  0  0  0  0  0  0
  -11.5480  -23.9210   28.3850 C   0  0  1  0  0  0  0  0  0  0  0  0
  -13.0090  -24.3100   28.2360 C   0  0  0  0  0  0  0  0  0  0  0  0
  -11.2520  -22.2820   30.1980 C   0  0  0  0  0  0  0  0  0  0  0  0
  -11.3380  -20.5710   31.5640 C   0  0  0  0  0  0  0  0  0  0  0  0
  -11.4550  -19.8870   32.8780 C   0  0  0  0  0  0  0  0  0  0  0  0
  -11.2070  -23.5580   29.7760 N   0  0  0  0  0  0  0  0  0  0  0  0
  -10.6120  -25.2760   26.4410 C   0  0  0  0  0  0  0  0  0  0  0  0
   -9.2840  -24.7090   28.2980 O   0  0  0  0  0  0  0  0  0  0  0  0
  -10.6170  -25.0440   27.9330 C   0  0  1  0  0  0  0  0  0  0  0  0
   -9.0730  -24.7040   29.7210 C   0  0  0  0  0  0  0  0  0  0  0  0
  -10.3710  -24.5420   30.4690 C   0  0  0  0  0  0  0  0  0  0  0  0
  -11.2500  -19.8440   30.4750 N   0  0  0  0  0  0  0  0  0  0  0  0
  -11.1720  -20.8820   29.1660 S   0  0  0  0  0  0  0  0  0  0  0  0
 14 13  1  0
 14  4  1  0
 10  8  1  6
 13  5  2  0
  9 10  1  0
  9 11  1  0
 10  2  1  0
  2  3  1  1
  2  7  1  0
  4  7  1  0
  4  1  2  0
  5  1  1  0
  5  6  1  0
 11 12  1  0
  7 12  1  0
M  END
>  <id>  (32) 
32

>  <inchikey>  (32) 
ZYTILAVGDCNHRS-RNFRBKRXSA-N

>  <alias>  (32) 
7goh-a

>  <smiles>  (32) 
Cc1nsc(N2CCO[C@H](C)[C@H]2C)n1

>  <path>  (32) 
/opt/xchem-fragalysis-2/maxwin/BulkDock/TARGETS/D68EV3C/aligned_files/7goh-a/7goh-a.pdb

>  <distance_score>  (32) 
None

>  <energy_score>  (32) 
None

>  <compound>  (32) 
ZYTILAVGDCNHRS-UHFFFAOYSA-N

>  <compound_id>  (32) 
27

>  <target>  (32) 
D68EV3C

>  <tags>  (32) 
['BAD count', '[Other] upload_1 2025-02-11', 'hits', 'MEDIOCRE count', 'Main status', 'GOOD count']

>  <inspirations>  (32) 
None

>  <subsites>  (32) 
None

>  <reference>  (32) 


>  <observation_longname>  (32) 
7goh_A_201_v1

>  <ConformerSites alias>  (32) 
4a - 7gp7/A/201

>  <CanonSites alias>  (32) 
4 - 7gp7/A/201/1

>  <CrystalformSites alias>  (32) 
F2p - 7gp4/A/201/1

>  <Quatassemblies alias>  (32) 
A1 - monomer

>  <Crystalforms alias>  (32) 
F2 - EVD68_Reference_20230131

>  <ConformerSites upload name>  (32) 
4a - 7gp7/A/201

>  <CanonSites upload name>  (32) 
4 - 7gp7/A/201/1

>  <CrystalformSites upload name>  (32) 
F2p - 7gp4/A/201/1

>  <Quatassemblies upload name>  (32) 
A1 - monomer

>  <Crystalforms upload name>  (32) 
F2 - EVD68_Reference_20230131

>  <ConformerSites short tag>  (32) 
4a - 7gp7/A/201

>  <CanonSites short tag>  (32) 
4 - 7gp7/A/201/1

>  <CrystalformSites short tag>  (32) 
F2p - 7gp4/A/201/1

>  <Quatassemblies short tag>  (32) 
A1 - monomer

>  <Crystalforms short tag>  (32) 
F2 - EVD68_Reference_20230131

>  <Centroid res>  (32) 
7gp7/A/6/A_v1

>  <Experiment code>  (32) 
7goh

>  <Pose>  (32) 
7goh-a

$$$$
7goi-a
     RDKit          3D

 15 16  0  0  0  0  0  0  0  0999 V2000
   -5.4950    0.2740    6.8470 C   0  0  0  0  0  0  0  0  0  0  0  0
   -4.4030   -2.3050    6.8520 C   0  0  0  0  0  0  0  0  0  0  0  0
   -6.2230   -0.8140    6.3550 C   0  0  0  0  0  0  0  0  0  0  0  0
   -7.2770    1.8660    6.8980 O   0  0  0  0  0  0  0  0  0  0  0  0
   -6.0650    1.6630    6.7990 C   0  0  0  0  0  0  0  0  0  0  0  0
   -5.1910    2.6680    6.6470 N   0  0  0  0  0  0  0  0  0  0  0  0
   -5.5960    4.0240    6.2770 C   0  0  2  0  0  0  0  0  0  0  0  0
   -4.5060    4.7160    5.4560 C   0  0  0  0  0  0  0  0  0  0  0  0
   -3.5500    5.5140    6.3430 C   0  0  0  0  0  0  0  0  0  0  0  0
   -3.5070    4.9360    7.7360 C   0  0  0  0  0  0  0  0  0  0  0  0
   -4.8090    5.0700    8.4140 N   0  0  0  0  0  0  0  0  0  0  0  0
   -5.9460    4.8310    7.5160 C   0  0  0  0  0  0  0  0  0  0  0  0
   -4.2130    0.0390    7.3590 C   0  0  0  0  0  0  0  0  0  0  0  0
   -3.6750   -1.2420    7.3550 C   0  0  0  0  0  0  0  0  0  0  0  0
   -5.6730   -2.0930    6.3580 C   0  0  0  0  0  0  0  0  0  0  0  0
 10  9  1  0
 10 11  1  0
  9  8  1  0
 11 12  1  0
  8  7  1  0
 12  7  1  0
  7  6  1  1
  6  5  1  0
  4  5  2  0
  5  1  1  0
  1  3  2  0
  1 13  1  0
  3 15  1  0
 13 14  2  0
 15  2  2  0
 14  2  1  0
M  END
>  <id>  (33) 
33

>  <inchikey>  (33) 
ZFLKDMGBVZHBAC-LLVKDONJSA-N

>  <alias>  (33) 
7goi-a

>  <smiles>  (33) 
O=C(N[C@@H]1CCCNC1)c1ccccc1

>  <path>  (33) 
/opt/xchem-fragalysis-2/maxwin/BulkDock/TARGETS/D68EV3C/aligned_files/7goi-a/7goi-a.pdb

>  <distance_score>  (33) 
None

>  <energy_score>  (33) 
None

>  <compound>  (33) 
ZFLKDMGBVZHBAC-UHFFFAOYSA-N

>  <compound_id>  (33) 
28

>  <target>  (33) 
D68EV3C

>  <tags>  (33) 
['BAD count', '[Other] upload_1 2025-02-11', 'hits', 'MEDIOCRE count', 'Main status', 'GOOD count']

>  <inspirations>  (33) 
None

>  <subsites>  (33) 
None

>  <reference>  (33) 


>  <observation_longname>  (33) 
7goi_A_201_v1

>  <ConformerSites alias>  (33) 
3a - 7gpw/B/202

>  <CanonSites alias>  (33) 
3 - 7gpw/B/202/1

>  <CrystalformSites alias>  (33) 
F2m - 7goi/A/201/1

>  <Quatassemblies alias>  (33) 
A1 - monomer

>  <Crystalforms alias>  (33) 
F2 - EVD68_Reference_20230131

>  <ConformerSites upload name>  (33) 
3a - 7gpw/B/202

>  <CanonSites upload name>  (33) 
3 - 7gpw/B/202/1

>  <CrystalformSites upload name>  (33) 
F2m - 7goi/A/201/1

>  <Quatassemblies upload name>  (33) 
A1 - monomer

>  <Crystalforms upload name>  (33) 
F2 - EVD68_Reference_20230131

>  <ConformerSites short tag>  (33) 
3a - 7gpw/B/202

>  <CanonSites short tag>  (33) 
3 - 7gpw/B/202/1

>  <CrystalformSites short tag>  (33) 
F2m - 7goi/A/201/1

>  <Quatassemblies short tag>  (33) 
A1 - monomer

>  <Crystalforms short tag>  (33) 
F2 - EVD68_Reference_20230131

>  <Centroid res>  (33) 
7gpw/B/74/B_v1

>  <Experiment code>  (33) 
7goi

>  <Pose>  (33) 
7goi-a

$$$$
7gqi-a
     RDKit          3D

 12 13  0  0  0  0  0  0  0  0999 V2000
   -8.9800  -24.9540   33.7380 C   0  0  0  0  0  0  0  0  0  0  0  0
   -8.5640  -25.6030   32.5950 C   0  0  0  0  0  0  0  0  0  0  0  0
   -9.0550  -25.2240   31.3560 C   0  0  0  0  0  0  0  0  0  0  0  0
  -11.3200  -23.9360   27.7310 C   0  0  0  0  0  0  0  0  0  0  0  0
  -10.9700  -24.4970   26.3820 C   0  0  0  0  0  0  0  0  0  0  0  0
  -10.4570  -25.8310   28.9210 O   0  0  0  0  0  0  0  0  0  0  0  0
  -10.7240  -24.6290   28.9330 C   0  0  0  0  0  0  0  0  0  0  0  0
  -12.3280  -24.7030   26.9230 C   0  0  0  0  0  0  0  0  0  0  0  0
  -10.5150  -23.8230   30.0000 N   0  0  0  0  0  0  0  0  0  0  0  0
   -9.9840  -24.1940   31.2610 C   0  0  0  0  0  0  0  0  0  0  0  0
   -9.8960  -23.9260   33.6500 C   0  0  0  0  0  0  0  0  0  0  0  0
  -10.4020  -23.5410   32.4170 C   0  0  0  0  0  0  0  0  0  0  0  0
  7  6  2  0
  9  7  1  0
 10  9  1  0
 10 12  2  0
 12 11  1  0
 11  1  2  0
  1  2  1  0
  2  3  2  0
  3 10  1  0
  4  7  1  0
  4  5  1  0
  5  8  1  0
  8  4  1  0
M  END
>  <id>  (34) 
34

>  <inchikey>  (34) 
OCHYJSATRBHPLB-UHFFFAOYSA-N

>  <alias>  (34) 
7gqi-a

>  <smiles>  (34) 
O=C(Nc1ccccc1)C1CC1

>  <path>  (34) 
/opt/xchem-fragalysis-2/maxwin/BulkDock/TARGETS/D68EV3C/aligned_files/7gqi-a/7gqi-a.pdb

>  <distance_score>  (34) 
None

>  <energy_score>  (34) 
None

>  <compound>  (34) 
OCHYJSATRBHPLB-UHFFFAOYSA-N

>  <compound_id>  (34) 
29

>  <target>  (34) 
D68EV3C

>  <tags>  (34) 
['BAD count', '[Other] upload_1 2025-02-11', 'hits', 'MEDIOCRE count', 'Main status', 'GOOD count']

>  <inspirations>  (34) 
None

>  <subsites>  (34) 
None

>  <reference>  (34) 


>  <observation_longname>  (34) 
7gqi_B_201_v1

>  <ConformerSites alias>  (34) 
4a - 7gp7/A/201

>  <CanonSites alias>  (34) 
4 - 7gp7/A/201/1

>  <CrystalformSites alias>  (34) 
F2p - 7gp4/A/201/1

>  <Quatassemblies alias>  (34) 
A1 - monomer

>  <Crystalforms alias>  (34) 
F2 - EVD68_Reference_20230131

>  <ConformerSites upload name>  (34) 
4a - 7gp7/A/201

>  <CanonSites upload name>  (34) 
4 - 7gp7/A/201/1

>  <CrystalformSites upload name>  (34) 
F2p - 7gp4/A/201/1

>  <Quatassemblies upload name>  (34) 
A1 - monomer

>  <Crystalforms upload name>  (34) 
F2 - EVD68_Reference_20230131

>  <ConformerSites short tag>  (34) 
4a - 7gp7/A/201

>  <CanonSites short tag>  (34) 
4 - 7gp7/A/201/1

>  <CrystalformSites short tag>  (34) 
F2p - 7gp4/A/201/1

>  <Quatassemblies short tag>  (34) 
A1 - monomer

>  <Crystalforms short tag>  (34) 
F2 - EVD68_Reference_20230131

>  <Centroid res>  (34) 
7gp7/A/6/A_v1

>  <Experiment code>  (34) 
7gqi

>  <Pose>  (34) 
7gqi-a

$$$$
7goj-a
     RDKit          3D

 15 17  0  0  0  0  0  0  0  0999 V2000
   -8.9700  -26.9830   32.3170 N   0  0  0  0  0  0  0  0  0  0  0  0
   -9.8190  -24.3360   33.3590 N   0  0  0  0  0  0  0  0  0  0  0  0
  -10.2890  -24.9040   32.2010 C   0  0  0  0  0  0  0  0  0  0  0  0
  -10.4410  -23.2050   33.3900 C   0  0  0  0  0  0  0  0  0  0  0  0
  -10.3570  -22.1310   34.3960 C   0  0  0  0  0  0  0  0  0  0  0  0
  -11.7170  -21.5220   34.7680 C   0  0  0  0  0  0  0  0  0  0  0  0
  -11.1030  -20.1280   34.5980 C   0  0  0  0  0  0  0  0  0  0  0  0
  -10.3210  -26.7760   30.5610 N   0  0  0  0  0  0  0  0  0  0  0  0
  -11.3040  -26.2590   29.6120 C   0  0  0  0  0  0  0  0  0  0  0  0
  -11.2650  -23.0210   32.3440 O   0  0  0  0  0  0  0  0  0  0  0  0
   -9.6760  -27.9840   30.4400 C   0  0  0  0  0  0  0  0  0  0  0  0
   -8.8610  -28.0900   31.5120 C   0  0  0  0  0  0  0  0  0  0  0  0
   -9.8580  -26.2040   31.7150 C   0  0  0  0  0  0  0  0  0  0  0  0
   -9.9490  -20.7750   33.8110 C   0  0  0  0  0  0  0  0  0  0  0  0
  -11.1530  -24.1860   31.5430 N   0  0  0  0  0  0  0  0  0  0  0  0
 14  7  1  0
 14  5  1  0
  7  6  1  0
 10 15  1  0
 10  4  1  0
 15  3  2  0
  9  8  1  0
  5  4  1  0
  5  6  1  0
  4  2  2  0
  3  2  1  0
  3 13  1  0
  8 13  1  0
  8 11  1  0
 13  1  2  0
 11 12  2  0
  1 12  1  0
M  END
>  <id>  (35) 
35

>  <inchikey>  (35) 
OPUWQKONOBGDBJ-UHFFFAOYSA-N

>  <alias>  (35) 
7goj-a

>  <smiles>  (35) 
Cn1ccnc1-c1noc(C2CCC2)n1

>  <path>  (35) 
/opt/xchem-fragalysis-2/maxwin/BulkDock/TARGETS/D68EV3C/aligned_files/7goj-a/7goj-a.pdb

>  <distance_score>  (35) 
None

>  <energy_score>  (35) 
None

>  <compound>  (35) 
OPUWQKONOBGDBJ-UHFFFAOYSA-N

>  <compound_id>  (35) 
30

>  <target>  (35) 
D68EV3C

>  <tags>  (35) 
['BAD count', '[Other] upload_1 2025-02-11', 'hits', 'MEDIOCRE count', 'Main status', 'GOOD count']

>  <inspirations>  (35) 
None

>  <subsites>  (35) 
None

>  <reference>  (35) 


>  <observation_longname>  (35) 
7goj_A_201_v1

>  <ConformerSites alias>  (35) 
5c - 7goj/A/201

>  <CanonSites alias>  (35) 
5 - B1120/A/308/1

>  <CrystalformSites alias>  (35) 
F2r - 7goj/A/201/1

>  <Quatassemblies alias>  (35) 
A1 - monomer

>  <Crystalforms alias>  (35) 
F2 - EVD68_Reference_20230131

>  <ConformerSites upload name>  (35) 
5c - 7goj/A/201

>  <CanonSites upload name>  (35) 
5 - D68EV3CPROB-x1120/A/308/1

>  <CrystalformSites upload name>  (35) 
F2r - 7goj/A/201/1

>  <Quatassemblies upload name>  (35) 
A1 - monomer

>  <Crystalforms upload name>  (35) 
F2 - EVD68_Reference_20230131

>  <ConformerSites short tag>  (35) 
5c - 7goj/A/201

>  <CanonSites short tag>  (35) 
5 - B1120/A/308/1

>  <CrystalformSites short tag>  (35) 
F2r - 7goj/A/201/1

>  <Quatassemblies short tag>  (35) 
A1 - monomer

>  <Crystalforms short tag>  (35) 
F2 - EVD68_Reference_20230131

>  <Centroid res>  (35) 
D68EV3CPROB-x1120/B/115/A_v1

>  <Experiment code>  (35) 
7goj

>  <Pose>  (35) 
7goj-a

$$$$
7gou-a
     RDKit          3D

 12 12  0  0  0  0  0  0  0  0999 V2000
   11.4350   -2.5290   15.1950 C   0  0  0  0  0  0  0  0  0  0  0  0
   12.3380   -3.2640   15.9400 C   0  0  0  0  0  0  0  0  0  0  0  0
   13.4310   -2.6380   16.5270 C   0  0  0  0  0  0  0  0  0  0  0  0
   16.0340   -3.6070   16.8650 C   0  0  0  0  0  0  0  0  0  0  0  0
   14.8320   -0.6270   16.7160 N   0  0  0  0  0  0  0  0  0  0  0  0
   15.4540   -0.6560   18.0300 C   0  0  0  0  0  0  0  0  0  0  0  0
   14.4600   -3.1340   18.8680 O   0  0  0  0  0  0  0  0  0  0  0  0
   13.6500   -1.2500   16.3570 C   0  0  0  0  0  0  0  0  0  0  0  0
   12.6870   -0.5370   15.6330 C   0  0  0  0  0  0  0  0  0  0  0  0
   11.6000   -1.1730   15.0560 C   0  0  0  0  0  0  0  0  0  0  0  0
   13.9410   -5.0320   17.4040 O   0  0  0  0  0  0  0  0  0  0  0  0
   14.4240   -3.6900   17.5490 S   0  0  0  0  0  0  0  0  0  0  0  0
  1  2  2  0
  1 10  1  0
  2  3  1  0
  7 12  2  0
 10  9  2  0
  3 12  1  0
  3  8  2  0
 12 11  2  0
 12  4  1  0
  9  8  1  0
  8  5  1  0
  5  6  1  0
M  END
>  <id>  (36) 
36

>  <inchikey>  (36) 
YLDKGNWSSXYUAH-UHFFFAOYSA-N

>  <alias>  (36) 
7gou-a

>  <smiles>  (36) 
CNc1ccccc1S(C)(=O)=O

>  <path>  (36) 
/opt/xchem-fragalysis-2/maxwin/BulkDock/TARGETS/D68EV3C/aligned_files/7gou-a/7gou-a_hippo.pdb

>  <distance_score>  (36) 
None

>  <energy_score>  (36) 
None

>  <compound>  (36) 
YLDKGNWSSXYUAH-UHFFFAOYSA-N

>  <compound_id>  (36) 
31

>  <target>  (36) 
D68EV3C

>  <tags>  (36) 
['BAD count', '[Other] upload_1 2025-02-11', 'hits', 'MEDIOCRE count', 'Main status', 'GOOD count']

>  <inspirations>  (36) 
None

>  <subsites>  (36) 
None

>  <reference>  (36) 


>  <observation_longname>  (36) 
7gou_B_201_v1

>  <ConformerSites alias>  (36) 
2a - 7gon/B/201

>  <CanonSites alias>  (36) 
2 - 7gon/B/201/1

>  <CrystalformSites alias>  (36) 
F2j - 7gqb/B/201/1

>  <Quatassemblies alias>  (36) 
A1 - monomer

>  <Crystalforms alias>  (36) 
F2 - EVD68_Reference_20230131

>  <ConformerSites upload name>  (36) 
2a - 7gon/B/201

>  <CanonSites upload name>  (36) 
2 - 7gon/B/201/1

>  <CrystalformSites upload name>  (36) 
F2j - 7gqb/B/201/1

>  <Quatassemblies upload name>  (36) 
A1 - monomer

>  <Crystalforms upload name>  (36) 
F2 - EVD68_Reference_20230131

>  <ConformerSites short tag>  (36) 
2a - 7gon/B/201

>  <CanonSites short tag>  (36) 
2 - 7gon/B/201/1

>  <CrystalformSites short tag>  (36) 
F2j - 7gqb/B/201/1

>  <Quatassemblies short tag>  (36) 
A1 - monomer

>  <Crystalforms short tag>  (36) 
F2 - EVD68_Reference_20230131

>  <Centroid res>  (36) 
7gon/B/47/B_v1

>  <Experiment code>  (36) 
7gou

>  <Pose>  (36) 
7gou-a

$$$$
7gou-b
     RDKit          3D

 12 12  0  0  0  0  0  0  0  0999 V2000
  -10.0670    0.5890    9.5370 C   0  0  0  0  0  0  0  0  0  0  0  0
   -9.8840    1.8670   10.0350 C   0  0  0  0  0  0  0  0  0  0  0  0
  -10.6850    2.3110   11.0770 C   0  0  0  0  0  0  0  0  0  0  0  0
   -9.3680    3.8130   13.0270 C   0  0  0  0  0  0  0  0  0  0  0  0
  -12.3760    1.9020   12.7430 N   0  0  0  0  0  0  0  0  0  0  0  0
  -13.3650    1.0990   13.4210 C   0  0  0  0  0  0  0  0  0  0  0  0
   -9.7220    4.6750   10.6160 O   0  0  0  0  0  0  0  0  0  0  0  0
  -11.6660    1.4770   11.6420 C   0  0  0  0  0  0  0  0  0  0  0  0
  -11.8430    0.2020   11.1050 C   0  0  0  0  0  0  0  0  0  0  0  0
  -11.0410   -0.2330   10.0600 C   0  0  0  0  0  0  0  0  0  0  0  0
  -11.6850    4.4920   12.0960 O   0  0  0  0  0  0  0  0  0  0  0  0
  -10.4270    3.9670   11.6440 S   0  0  0  0  0  0  0  0  0  0  0  0
  1  2  2  0
  1 10  1  0
  2  3  1  0
  7 12  2  0
 10  9  2  0
  3 12  1  0
  3  8  2  0
 12 11  2  0
 12  4  1  0
  9  8  1  0
  8  5  1  0
  5  6  1  0
M  END
>  <id>  (37) 
37

>  <inchikey>  (37) 
YLDKGNWSSXYUAH-UHFFFAOYSA-N

>  <alias>  (37) 
7gou-b

>  <smiles>  (37) 
CNc1ccccc1S(C)(=O)=O

>  <path>  (37) 
/opt/xchem-fragalysis-2/maxwin/BulkDock/TARGETS/D68EV3C/aligned_files/7gou-b/7gou-b_hippo.pdb

>  <distance_score>  (37) 
None

>  <energy_score>  (37) 
None

>  <compound>  (37) 
YLDKGNWSSXYUAH-UHFFFAOYSA-N

>  <compound_id>  (37) 
31

>  <target>  (37) 
D68EV3C

>  <tags>  (37) 
['BAD count', '[Other] upload_1 2025-02-11', 'hits', 'MEDIOCRE count', 'Main status', 'GOOD count']

>  <inspirations>  (37) 
None

>  <subsites>  (37) 
None

>  <reference>  (37) 


>  <observation_longname>  (37) 
7gou_B_202_v1

>  <ConformerSites alias>  (37) 
3a - 7gpw/B/202

>  <CanonSites alias>  (37) 
3 - 7gpw/B/202/1

>  <CrystalformSites alias>  (37) 
F2n - 7gou/B/202/1

>  <Quatassemblies alias>  (37) 
A1 - monomer

>  <Crystalforms alias>  (37) 
F2 - EVD68_Reference_20230131

>  <ConformerSites upload name>  (37) 
3a - 7gpw/B/202

>  <CanonSites upload name>  (37) 
3 - 7gpw/B/202/1

>  <CrystalformSites upload name>  (37) 
F2n - 7gou/B/202/1

>  <Quatassemblies upload name>  (37) 
A1 - monomer

>  <Crystalforms upload name>  (37) 
F2 - EVD68_Reference_20230131

>  <ConformerSites short tag>  (37) 
3a - 7gpw/B/202

>  <CanonSites short tag>  (37) 
3 - 7gpw/B/202/1

>  <CrystalformSites short tag>  (37) 
F2n - 7gou/B/202/1

>  <Quatassemblies short tag>  (37) 
A1 - monomer

>  <Crystalforms short tag>  (37) 
F2 - EVD68_Reference_20230131

>  <Centroid res>  (37) 
7gpw/B/74/B_v1

>  <Experiment code>  (37) 
7gou

>  <Pose>  (37) 
7gou-b

$$$$
7gou-c
     RDKit          3D

 12 12  0  0  0  0  0  0  0  0999 V2000
  -12.0350  -24.4440   27.8510 C   0  0  0  0  0  0  0  0  0  0  0  0
  -12.2580  -23.7910   29.0510 C   0  0  0  0  0  0  0  0  0  0  0  0
  -11.7750  -24.3330   30.2330 C   0  0  0  0  0  0  0  0  0  0  0  0
  -10.6900  -23.8120   32.7620 C   0  0  0  0  0  0  0  0  0  0  0  0
  -10.7530  -26.1850   31.3890 N   0  0  0  0  0  0  0  0  0  0  0  0
   -9.6420  -27.1020   31.4790 C   0  0  0  0  0  0  0  0  0  0  0  0
  -11.7640  -21.9610   31.3030 O   0  0  0  0  0  0  0  0  0  0  0  0
  -11.0920  -25.5650   30.2280 C   0  0  0  0  0  0  0  0  0  0  0  0
  -10.8600  -26.1840   28.9990 C   0  0  0  0  0  0  0  0  0  0  0  0
  -11.3300  -25.6230   27.8250 C   0  0  0  0  0  0  0  0  0  0  0  0
  -13.2360  -23.6660   32.2970 O   0  0  0  0  0  0  0  0  0  0  0  0
  -11.9810  -23.3300   31.6810 S   0  0  0  0  0  0  0  0  0  0  0  0
  1  2  2  0
  1 10  1  0
  2  3  1  0
  7 12  2  0
 10  9  2  0
  3 12  1  0
  3  8  2  0
 12 11  2  0
 12  4  1  0
  9  8  1  0
  8  5  1  0
  5  6  1  0
M  END
>  <id>  (38) 
38

>  <inchikey>  (38) 
YLDKGNWSSXYUAH-UHFFFAOYSA-N

>  <alias>  (38) 
7gou-c

>  <smiles>  (38) 
CNc1ccccc1S(C)(=O)=O

>  <path>  (38) 
/opt/xchem-fragalysis-2/maxwin/BulkDock/TARGETS/D68EV3C/aligned_files/7gou-c/7gou-c.pdb

>  <distance_score>  (38) 
None

>  <energy_score>  (38) 
None

>  <compound>  (38) 
YLDKGNWSSXYUAH-UHFFFAOYSA-N

>  <compound_id>  (38) 
31

>  <target>  (38) 
D68EV3C

>  <tags>  (38) 
['BAD count', '[Other] upload_1 2025-02-11', 'hits', 'MEDIOCRE count', 'Main status', 'GOOD count']

>  <inspirations>  (38) 
None

>  <subsites>  (38) 
None

>  <reference>  (38) 


>  <observation_longname>  (38) 
7gou_A_201_v1

>  <ConformerSites alias>  (38) 
5f - 7gou/A/201

>  <CanonSites alias>  (38) 
5 - B1120/A/308/1

>  <CrystalformSites alias>  (38) 
F2r - 7goj/A/201/1

>  <Quatassemblies alias>  (38) 
A1 - monomer

>  <Crystalforms alias>  (38) 
F2 - EVD68_Reference_20230131

>  <ConformerSites upload name>  (38) 
5f - 7gou/A/201

>  <CanonSites upload name>  (38) 
5 - D68EV3CPROB-x1120/A/308/1

>  <CrystalformSites upload name>  (38) 
F2r - 7goj/A/201/1

>  <Quatassemblies upload name>  (38) 
A1 - monomer

>  <Crystalforms upload name>  (38) 
F2 - EVD68_Reference_20230131

>  <ConformerSites short tag>  (38) 
5f - 7gou/A/201

>  <CanonSites short tag>  (38) 
5 - B1120/A/308/1

>  <CrystalformSites short tag>  (38) 
F2r - 7goj/A/201/1

>  <Quatassemblies short tag>  (38) 
A1 - monomer

>  <Crystalforms short tag>  (38) 
F2 - EVD68_Reference_20230131

>  <Centroid res>  (38) 
D68EV3CPROB-x1120/B/115/A_v1

>  <Experiment code>  (38) 
7gou

>  <Pose>  (38) 
7gou-c

$$$$
7gok-b
     RDKit          3D

 12 13  0  0  0  0  0  0  0  0999 V2000
  -10.7020  -25.6690   27.9200 C   0  0  0  0  0  0  0  0  0  0  0  0
  -10.5000  -25.3040   33.3370 N   0  0  0  0  0  0  0  0  0  0  0  0
  -11.4380  -24.4740   32.8860 C   0  0  0  0  0  0  0  0  0  0  0  0
  -12.2880  -23.9470   33.6320 O   0  0  0  0  0  0  0  0  0  0  0  0
  -11.4690  -24.1830   31.4110 C   0  0  0  0  0  0  0  0  0  0  0  0
  -12.0620  -22.9960   30.9520 C   0  0  0  0  0  0  0  0  0  0  0  0
  -12.1960  -22.7420   29.5940 C   0  0  0  0  0  0  0  0  0  0  0  0
  -11.7450  -23.7010   28.6920 C   0  0  0  0  0  0  0  0  0  0  0  0
  -11.8860  -23.7160   27.3130 N   0  0  0  0  0  0  0  0  0  0  0  0
  -11.0600  -24.7660   26.7230 C   0  0  0  0  0  0  0  0  0  0  0  0
  -11.1220  -24.8640   29.1200 C   0  0  0  0  0  0  0  0  0  0  0  0
  -10.9840  -25.1050   30.4830 C   0  0  0  0  0  0  0  0  0  0  0  0
  2  3  1  0
  4  3  2  0
  3  5  1  0
  5 12  1  0
  5  6  2  0
 12 11  2  0
  6  7  1  0
 11  8  1  0
 11  1  1  0
  7  8  2  0
  8  9  1  0
  1 10  2  0
  9 10  1  0
M  END
>  <id>  (39) 
39

>  <inchikey>  (39) 
GQMYQEAXTITUAE-UHFFFAOYSA-N

>  <alias>  (39) 
7gok-b

>  <smiles>  (39) 
NC(=O)c1ccc2[nH]ccc2c1

>  <path>  (39) 
/opt/xchem-fragalysis-2/maxwin/BulkDock/TARGETS/D68EV3C/aligned_files/7gok-b/7gok-b.pdb

>  <distance_score>  (39) 
None

>  <energy_score>  (39) 
None

>  <compound>  (39) 
GQMYQEAXTITUAE-UHFFFAOYSA-N

>  <compound_id>  (39) 
32

>  <target>  (39) 
D68EV3C

>  <tags>  (39) 
['BAD count', '[Other] upload_1 2025-02-11', 'hits', 'MEDIOCRE count', 'Main status', 'GOOD count']

>  <inspirations>  (39) 
None

>  <subsites>  (39) 
None

>  <reference>  (39) 


>  <observation_longname>  (39) 
7gok_A_201_v1

>  <ConformerSites alias>  (39) 
17a - 7gok/A/201

>  <CanonSites alias>  (39) 
17 - 7gok/A/201/1

>  <CrystalformSites alias>  (39) 
F2an - 7gok/A/201/1

>  <Quatassemblies alias>  (39) 
A1 - monomer

>  <Crystalforms alias>  (39) 
F2 - EVD68_Reference_20230131

>  <ConformerSites upload name>  (39) 
17a - 7gok/A/201

>  <CanonSites upload name>  (39) 
17 - 7gok/A/201/1

>  <CrystalformSites upload name>  (39) 
F2an - 7gok/A/201/1

>  <Quatassemblies upload name>  (39) 
A1 - monomer

>  <Crystalforms upload name>  (39) 
F2 - EVD68_Reference_20230131

>  <ConformerSites short tag>  (39) 
17a - 7gok/A/201

>  <CanonSites short tag>  (39) 
17 - 7gok/A/201/1

>  <CrystalformSites short tag>  (39) 
F2an - 7gok/A/201/1

>  <Quatassemblies short tag>  (39) 
A1 - monomer

>  <Crystalforms short tag>  (39) 
F2 - EVD68_Reference_20230131

>  <Centroid res>  (39) 
7gok/B/115/A_v1

>  <Experiment code>  (39) 
7gok

>  <Pose>  (39) 
7gok-b

$$$$
7gok-a
     RDKit          3D

 12 13  0  0  0  0  0  0  0  0999 V2000
    1.2450   -7.0680   27.8270 C   0  0  0  0  0  0  0  0  0  0  0  0
   -1.3550   -5.4590   33.2780 N   0  0  0  0  0  0  0  0  0  0  0  0
   -0.7950   -6.3530   32.4720 C   0  0  0  0  0  0  0  0  0  0  0  0
   -0.7730   -7.5680   32.7280 O   0  0  0  0  0  0  0  0  0  0  0  0
   -0.1580   -5.8550   31.2080 C   0  0  0  0  0  0  0  0  0  0  0  0
    0.2360   -4.5140   31.0620 C   0  0  0  0  0  0  0  0  0  0  0  0
    0.8420   -4.0670   29.8980 C   0  0  0  0  0  0  0  0  0  0  0  0
    1.0730   -4.9820   28.8820 C   0  0  0  0  0  0  0  0  0  0  0  0
    1.6260   -4.7480   27.6310 N   0  0  0  0  0  0  0  0  0  0  0  0
    1.6000   -5.9510   26.8150 C   0  0  0  0  0  0  0  0  0  0  0  0
    0.7250   -6.3180   29.0150 C   0  0  0  0  0  0  0  0  0  0  0  0
    0.0840   -6.7500   30.1680 C   0  0  0  0  0  0  0  0  0  0  0  0
  2  3  1  0
  4  3  2  0
  3  5  1  0
  5 12  1  0
  5  6  2  0
 12 11  2  0
  6  7  1  0
 11  8  1  0
 11  1  1  0
  7  8  2  0
  8  9  1  0
  1 10  2  0
  9 10  1  0
M  END
>  <id>  (40) 
40

>  <inchikey>  (40) 
GQMYQEAXTITUAE-UHFFFAOYSA-N

>  <alias>  (40) 
7gok-a

>  <smiles>  (40) 
NC(=O)c1ccc2[nH]ccc2c1

>  <path>  (40) 
/opt/xchem-fragalysis-2/maxwin/BulkDock/TARGETS/D68EV3C/aligned_files/7gok-a/7gok-a.pdb

>  <distance_score>  (40) 
None

>  <energy_score>  (40) 
None

>  <compound>  (40) 
GQMYQEAXTITUAE-UHFFFAOYSA-N

>  <compound_id>  (40) 
32

>  <target>  (40) 
D68EV3C

>  <tags>  (40) 
['BAD count', '[Other] upload_1 2025-02-11', '[Other] iter1_frags', 'hits', 'MEDIOCRE count', 'Main status', 'GOOD count']

>  <inspirations>  (40) 
None

>  <subsites>  (40) 
None

>  <reference>  (40) 


>  <observation_longname>  (40) 
7gok_A_202_v1

>  <ConformerSites alias>  (40) 
1a - 7gp9/A/201

>  <CanonSites alias>  (40) 
1 - 7gp9/A/201/1

>  <CrystalformSites alias>  (40) 
F2b - 7gp9/A/201/1

>  <Quatassemblies alias>  (40) 
A1 - monomer

>  <Crystalforms alias>  (40) 
F2 - EVD68_Reference_20230131

>  <ConformerSites upload name>  (40) 
1a - 7gp9/A/201

>  <CanonSites upload name>  (40) 
1 - 7gp9/A/201/1

>  <CrystalformSites upload name>  (40) 
F2b - 7gp9/A/201/1

>  <Quatassemblies upload name>  (40) 
A1 - monomer

>  <Crystalforms upload name>  (40) 
F2 - EVD68_Reference_20230131

>  <ConformerSites short tag>  (40) 
1a - 7gp9/A/201

>  <CanonSites short tag>  (40) 
1 - 7gp9/A/201/1

>  <CrystalformSites short tag>  (40) 
F2b - 7gp9/A/201/1

>  <Quatassemblies short tag>  (40) 
A1 - monomer

>  <Crystalforms short tag>  (40) 
F2 - EVD68_Reference_20230131

>  <Centroid res>  (40) 
7gp9/A/163/A_v1

>  <Experiment code>  (40) 
7gok

>  <Pose>  (40) 
7gok-a

$$$$
7gol-a
     RDKit          3D

 14 15  0  0  0  0  0  0  0  0999 V2000
   -1.7000   -8.3990   32.7160 N   0  0  0  0  0  0  0  0  0  0  0  0
    1.3220   -3.7530   34.6870 C   0  0  1  0  0  0  0  0  0  0  0  0
    0.3530   -4.9150   34.4910 C   0  0  0  0  0  0  0  0  0  0  0  0
   -0.3190   -6.6240   32.8600 C   0  0  0  0  0  0  0  0  0  0  0  0
   -1.1370   -7.4710   33.5270 C   0  0  0  0  0  0  0  0  0  0  0  0
    0.4530   -5.5440   33.2850 N   0  0  0  0  0  0  0  0  0  0  0  0
    3.2290   -5.5530   34.5670 C   0  0  0  0  0  0  0  0  0  0  0  0
    1.3360   -3.3200   36.0620 O   0  0  0  0  0  0  0  0  0  0  0  0
    2.7860   -4.1060   34.3450 C   0  0  2  0  0  0  0  0  0  0  0  0
    3.5370   -3.1020   35.2100 C   0  0  0  0  0  0  0  0  0  0  0  0
    2.6910   -3.0530   36.4580 C   0  0  0  0  0  0  0  0  0  0  0  0
   -1.3710   -8.3240   31.4750 N   0  0  0  0  0  0  0  0  0  0  0  0
   -0.4580   -5.2260   35.3610 O   0  0  0  0  0  0  0  0  0  0  0  0
   -0.3040   -7.0570   31.1990 S   0  0  0  0  0  0  0  0  0  0  0  0
 12  1  2  0
 12 14  1  0
  1  5  1  0
  5  4  2  0
 14  4  1  0
  4  6  1  0
  9  7  1  1
  6  3  1  0
 13  3  2  0
  2  3  1  1
  9  2  1  0
  9 10  1  0
  2  8  1  0
  8 11  1  0
 10 11  1  0
M  END
>  <id>  (41) 
41

>  <inchikey>  (41) 
OAYBAYPFIGUPDE-VDTYLAMSSA-N

>  <alias>  (41) 
7gol-a

>  <smiles>  (41) 
C[C@@H]1CCO[C@@H]1C(=O)Nc1cnns1

>  <path>  (41) 
/opt/xchem-fragalysis-2/maxwin/BulkDock/TARGETS/D68EV3C/aligned_files/7gol-a/7gol-a.pdb

>  <distance_score>  (41) 
None

>  <energy_score>  (41) 
None

>  <compound>  (41) 
OAYBAYPFIGUPDE-UHFFFAOYSA-N

>  <compound_id>  (41) 
33

>  <target>  (41) 
D68EV3C

>  <tags>  (41) 
['BAD count', '[Other] upload_1 2025-02-11', '[Other] iter1_frags', 'hits', 'MEDIOCRE count', 'Main status', 'GOOD count']

>  <inspirations>  (41) 
None

>  <subsites>  (41) 
None

>  <reference>  (41) 


>  <observation_longname>  (41) 
7gol_A_201_v1

>  <ConformerSites alias>  (41) 
1a - 7gp9/A/201

>  <CanonSites alias>  (41) 
1 - 7gp9/A/201/1

>  <CrystalformSites alias>  (41) 
F2b - 7gp9/A/201/1

>  <Quatassemblies alias>  (41) 
A1 - monomer

>  <Crystalforms alias>  (41) 
F2 - EVD68_Reference_20230131

>  <ConformerSites upload name>  (41) 
1a - 7gp9/A/201

>  <CanonSites upload name>  (41) 
1 - 7gp9/A/201/1

>  <CrystalformSites upload name>  (41) 
F2b - 7gp9/A/201/1

>  <Quatassemblies upload name>  (41) 
A1 - monomer

>  <Crystalforms upload name>  (41) 
F2 - EVD68_Reference_20230131

>  <ConformerSites short tag>  (41) 
1a - 7gp9/A/201

>  <CanonSites short tag>  (41) 
1 - 7gp9/A/201/1

>  <CrystalformSites short tag>  (41) 
F2b - 7gp9/A/201/1

>  <Quatassemblies short tag>  (41) 
A1 - monomer

>  <Crystalforms short tag>  (41) 
F2 - EVD68_Reference_20230131

>  <Centroid res>  (41) 
7gp9/A/163/A_v1

>  <Experiment code>  (41) 
7gol

>  <Pose>  (41) 
7gol-a

$$$$
7gom-a
     RDKit          3D

 14 14  0  0  0  0  0  0  0  0999 V2000
  -14.4190  -22.8060   24.9670 C   0  0  0  0  0  0  0  0  0  0  0  0
  -15.5570  -22.0690   24.4750 C   0  0  0  0  0  0  0  0  0  0  0  0
  -10.2260  -26.5910   31.1170 C   0  0  0  0  0  0  0  0  0  0  0  0
  -10.9350  -25.1710   29.3540 C   0  0  0  0  0  0  0  0  0  0  0  0
  -11.4440  -25.5510   27.9880 C   0  0  0  0  0  0  0  0  0  0  0  0
  -12.3140  -24.0550   26.2820 C   0  0  0  0  0  0  0  0  0  0  0  0
  -13.5440  -24.6890   26.1850 C   0  0  0  0  0  0  0  0  0  0  0  0
  -14.5950  -24.0620   25.5410 C   0  0  0  0  0  0  0  0  0  0  0  0
  -13.1620  -22.2080   25.0100 C   0  0  0  0  0  0  0  0  0  0  0  0
  -12.1180  -22.8280   25.6710 C   0  0  0  0  0  0  0  0  0  0  0  0
  -16.4860  -21.5050   24.1230 N   0  0  0  0  0  0  0  0  0  0  0  0
  -10.0350  -26.0560   29.7850 O   0  0  0  0  0  0  0  0  0  0  0  0
  -11.2930  -24.2140   29.9870 O   0  0  0  0  0  0  0  0  0  0  0  0
  -11.2550  -24.5010   27.0350 O   0  0  0  0  0  0  0  0  0  0  0  0
  7  8  1  0
  7  6  2  0
  8  1  2  0
 14  6  1  0
 14  5  1  0
  6 10  1  0
 12  3  1  0
 12  4  1  0
  1  2  1  0
  1  9  1  0
  5  4  1  0
  2 11  3  0
  4 13  2  0
 10  9  2  0
M  END
>  <id>  (42) 
42

>  <inchikey>  (42) 
MAVSETCJUQQWBN-UHFFFAOYSA-N

>  <alias>  (42) 
7gom-a

>  <smiles>  (42) 
COC(=O)COc1ccc(C#N)cc1

>  <path>  (42) 
/opt/xchem-fragalysis-2/maxwin/BulkDock/TARGETS/D68EV3C/aligned_files/7gom-a/7gom-a.pdb

>  <distance_score>  (42) 
None

>  <energy_score>  (42) 
None

>  <compound>  (42) 
MAVSETCJUQQWBN-UHFFFAOYSA-N

>  <compound_id>  (42) 
34

>  <target>  (42) 
D68EV3C

>  <tags>  (42) 
['BAD count', '[Other] upload_1 2025-02-11', 'hits', 'MEDIOCRE count', 'Main status', 'GOOD count']

>  <inspirations>  (42) 
None

>  <subsites>  (42) 
None

>  <reference>  (42) 


>  <observation_longname>  (42) 
7gom_B_201_v1

>  <ConformerSites alias>  (42) 
18a - 7gom/B/201

>  <CanonSites alias>  (42) 
18 - 7gom/B/201/1

>  <CrystalformSites alias>  (42) 
F2ao - 7gom/B/201/1

>  <Quatassemblies alias>  (42) 
A1 - monomer

>  <Crystalforms alias>  (42) 
F2 - EVD68_Reference_20230131

>  <ConformerSites upload name>  (42) 
18a - 7gom/B/201

>  <CanonSites upload name>  (42) 
18 - 7gom/B/201/1

>  <CrystalformSites upload name>  (42) 
F2ao - 7gom/B/201/1

>  <Quatassemblies upload name>  (42) 
A1 - monomer

>  <Crystalforms upload name>  (42) 
F2 - EVD68_Reference_20230131

>  <ConformerSites short tag>  (42) 
18a - 7gom/B/201

>  <CanonSites short tag>  (42) 
18 - 7gom/B/201/1

>  <CrystalformSites short tag>  (42) 
F2ao - 7gom/B/201/1

>  <Quatassemblies short tag>  (42) 
A1 - monomer

>  <Crystalforms short tag>  (42) 
F2 - EVD68_Reference_20230131

>  <Centroid res>  (42) 
7gom/B/101/B_v1

>  <Experiment code>  (42) 
7gom

>  <Pose>  (42) 
7gom-a

$$$$
7gp1-a
     RDKit          3D

 15 16  0  0  0  0  0  0  0  0999 V2000
  -20.1820    3.2630   19.3220 N   0  0  0  0  0  0  0  0  0  0  0  0
  -21.2800    2.7350   18.7270 N   0  0  0  0  0  0  0  0  0  0  0  0
  -20.3130    3.9910   23.4410 C   0  0  0  0  0  0  0  0  0  0  0  0
  -21.0930    4.7280   22.5800 C   0  0  0  0  0  0  0  0  0  0  0  0
  -21.0390    4.4940   21.2150 C   0  0  0  0  0  0  0  0  0  0  0  0
  -20.1900    3.5060   20.7270 C   0  0  0  0  0  0  0  0  0  0  0  0
  -19.1900    3.4300   18.4200 C   0  0  0  0  0  0  0  0  0  0  0  0
  -19.0170    2.7330   15.9520 C   0  0  0  0  0  0  0  0  0  0  0  0
  -18.4840    1.6480   21.0760 C   0  0  0  0  0  0  0  0  0  0  0  0
  -19.3940    2.7380   21.5820 C   0  0  0  0  0  0  0  0  0  0  0  0
  -19.4750    3.0060   22.9490 C   0  0  0  0  0  0  0  0  0  0  0  0
  -19.6960    2.9430   17.2450 C   0  0  0  0  0  0  0  0  0  0  0  0
  -20.9830    2.5470   17.4620 N   0  0  0  0  0  0  0  0  0  0  0  0
  -17.8150    2.9030   15.8060 O   0  0  0  0  0  0  0  0  0  0  0  0
  -19.8110    2.3260   14.9970 O   0  0  0  0  0  0  0  0  0  0  0  0
 11  3  2  0
 11 10  1  0
  3  4  1  0
  9 10  1  0
 10  6  2  0
  4  5  2  0
  6  5  1  0
  6  1  1  0
  1  7  1  0
  1  2  1  0
  7 12  2  0
  2 13  2  0
 12 13  1  0
 12  8  1  0
 14  8  2  0
  8 15  1  0
M  END
>  <id>  (43) 
43

>  <inchikey>  (43) 
DAYJQFRBEKQYDR-UHFFFAOYSA-N

>  <alias>  (43) 
7gp1-a

>  <smiles>  (43) 
Cc1ccccc1-n1cc(C(=O)O)nn1

>  <path>  (43) 
/opt/xchem-fragalysis-2/maxwin/BulkDock/TARGETS/D68EV3C/aligned_files/7gp1-a/7gp1-a.pdb

>  <distance_score>  (43) 
None

>  <energy_score>  (43) 
None

>  <compound>  (43) 
DAYJQFRBEKQYDR-UHFFFAOYSA-N

>  <compound_id>  (43) 
35

>  <target>  (43) 
D68EV3C

>  <tags>  (43) 
['BAD count', '[Other] upload_1 2025-02-11', 'hits', 'MEDIOCRE count', 'Main status', 'GOOD count']

>  <inspirations>  (43) 
None

>  <subsites>  (43) 
None

>  <reference>  (43) 


>  <observation_longname>  (43) 
7gp1_B_201_v1

>  <ConformerSites alias>  (43) 
20a - 7gp1/B/201

>  <CanonSites alias>  (43) 
20 - 7gp1/B/201/1

>  <CrystalformSites alias>  (43) 
F2aq - 7gp1/B/201/1

>  <Quatassemblies alias>  (43) 
A1 - monomer

>  <Crystalforms alias>  (43) 
F2 - EVD68_Reference_20230131

>  <ConformerSites upload name>  (43) 
20a - 7gp1/B/201

>  <CanonSites upload name>  (43) 
20 - 7gp1/B/201/1

>  <CrystalformSites upload name>  (43) 
F2aq - 7gp1/B/201/1

>  <Quatassemblies upload name>  (43) 
A1 - monomer

>  <Crystalforms upload name>  (43) 
F2 - EVD68_Reference_20230131

>  <ConformerSites short tag>  (43) 
20a - 7gp1/B/201

>  <CanonSites short tag>  (43) 
20 - 7gp1/B/201/1

>  <CrystalformSites short tag>  (43) 
F2aq - 7gp1/B/201/1

>  <Quatassemblies short tag>  (43) 
A1 - monomer

>  <Crystalforms short tag>  (43) 
F2 - EVD68_Reference_20230131

>  <Centroid res>  (43) 
7gp1/B/133/B_v1

>  <Experiment code>  (43) 
7gp1

>  <Pose>  (43) 
7gp1-a

$$$$
7gp2-a
     RDKit          3D

 11 11  0  0  0  0  0  0  0  0999 V2000
   -1.2210    1.4250   28.4530 N   0  0  0  0  0  0  0  0  0  0  0  0
   -1.7560    3.3480   26.3680 C   0  0  0  0  0  0  0  0  0  0  0  0
   -2.6070    2.1140   26.5440 C   0  0  0  0  0  0  0  0  0  0  0  0
   -1.7900    0.9890   27.1630 C   0  0  0  0  0  0  0  0  0  0  0  0
    0.5030   -0.6830   28.4890 C   0  0  0  0  0  0  0  0  0  0  0  0
   -0.6660    0.2330   29.4230 S   0  0  0  0  0  0  0  0  0  0  0  0
    0.0210    0.8620   30.5070 O   0  0  0  0  0  0  0  0  0  0  0  0
   -1.7780   -0.6160   29.7160 O   0  0  0  0  0  0  0  0  0  0  0  0
   -0.3730    2.6250   28.3190 C   0  0  0  0  0  0  0  0  0  0  0  0
   -1.1750    3.7640   27.7000 C   0  0  0  0  0  0  0  0  0  0  0  0
   -2.5260    4.4020   25.7890 O   0  0  0  0  0  0  0  0  0  0  0  0
  8  6  2  0
  4  1  1  0
  4  3  1  0
  6  1  1  0
  6  7  2  0
  6  5  1  0
  1  9  1  0
  3  2  1  0
 11  2  1  0
  2 10  1  0
  9 10  1  0
M  END
>  <id>  (44) 
44

>  <inchikey>  (44) 
UPEFDWJLNXWMOW-UHFFFAOYSA-N

>  <alias>  (44) 
7gp2-a

>  <smiles>  (44) 
CS(=O)(=O)N1CCC(O)CC1

>  <path>  (44) 
/opt/xchem-fragalysis-2/maxwin/BulkDock/TARGETS/D68EV3C/aligned_files/7gp2-a/7gp2-a.pdb

>  <distance_score>  (44) 
None

>  <energy_score>  (44) 
None

>  <compound>  (44) 
UPEFDWJLNXWMOW-UHFFFAOYSA-N

>  <compound_id>  (44) 
36

>  <target>  (44) 
D68EV3C

>  <tags>  (44) 
['BAD count', '[Other] upload_1 2025-02-11', '[Other] iter1_frags', 'hits', 'MEDIOCRE count', 'Main status', 'GOOD count']

>  <inspirations>  (44) 
None

>  <subsites>  (44) 
None

>  <reference>  (44) 


>  <observation_longname>  (44) 
7gp2_A_201_v1

>  <ConformerSites alias>  (44) 
1a - 7gp9/A/201

>  <CanonSites alias>  (44) 
1 - 7gp9/A/201/1

>  <CrystalformSites alias>  (44) 
F2a - 7gox/A/201/1

>  <Quatassemblies alias>  (44) 
A1 - monomer

>  <Crystalforms alias>  (44) 
F2 - EVD68_Reference_20230131

>  <ConformerSites upload name>  (44) 
1a - 7gp9/A/201

>  <CanonSites upload name>  (44) 
1 - 7gp9/A/201/1

>  <CrystalformSites upload name>  (44) 
F2a - 7gox/A/201/1

>  <Quatassemblies upload name>  (44) 
A1 - monomer

>  <Crystalforms upload name>  (44) 
F2 - EVD68_Reference_20230131

>  <ConformerSites short tag>  (44) 
1a - 7gp9/A/201

>  <CanonSites short tag>  (44) 
1 - 7gp9/A/201/1

>  <CrystalformSites short tag>  (44) 
F2a - 7gox/A/201/1

>  <Quatassemblies short tag>  (44) 
A1 - monomer

>  <Crystalforms short tag>  (44) 
F2 - EVD68_Reference_20230131

>  <Centroid res>  (44) 
7gp9/A/163/A_v1

>  <Experiment code>  (44) 
7gp2

>  <Pose>  (44) 
7gp2-a

$$$$
7go6-a
     RDKit          3D

 11 12  0  0  0  0  0  0  0  0999 V2000
   -5.9330  -26.1550   27.2130 N   0  0  0  0  0  0  0  0  0  0  0  0
   -5.3760  -24.9450   27.5600 C   0  0  0  0  0  0  0  0  0  0  0  0
   -6.4100  -24.1420   27.9020 C   0  0  0  0  0  0  0  0  0  0  0  0
   -7.3130  -26.0210   27.3510 C   0  0  0  0  0  0  0  0  0  0  0  0
   -8.1400  -27.1330   27.0410 C   0  0  0  0  0  0  0  0  0  0  0  0
   -9.7350  -29.3200   26.3380 N   0  0  0  0  0  0  0  0  0  0  0  0
   -8.3870  -29.5010   26.1710 C   0  0  0  0  0  0  0  0  0  0  0  0
   -7.5980  -28.2950   26.5940 C   0  0  0  0  0  0  0  0  0  0  0  0
   -6.1630  -28.3860   26.4680 C   0  0  0  0  0  0  0  0  0  0  0  0
   -5.3860  -27.3490   26.7890 C   0  0  0  0  0  0  0  0  0  0  0  0
   -7.6200  -24.7980   27.7770 N   0  0  0  0  0  0  0  0  0  0  0  0
  2  3  2  0
  2  1  1  0
  3 11  1  0
  1 10  1  0
  1  4  1  0
 11  4  2  0
 10  9  2  0
  4  5  1  0
  9  8  1  0
  5  8  2  0
  8  7  1  0
  7  6  1  0
M  END
>  <id>  (45) 
45

>  <inchikey>  (45) 
JOQDUOWWWPMEHJ-UHFFFAOYSA-N

>  <alias>  (45) 
7go6-a

>  <smiles>  (45) 
NCc1ccn2ccnc2c1

>  <path>  (45) 
/opt/xchem-fragalysis-2/maxwin/BulkDock/TARGETS/D68EV3C/aligned_files/7go6-a/7go6-a.pdb

>  <distance_score>  (45) 
None

>  <energy_score>  (45) 
None

>  <compound>  (45) 
JOQDUOWWWPMEHJ-UHFFFAOYSA-N

>  <compound_id>  (45) 
37

>  <target>  (45) 
D68EV3C

>  <tags>  (45) 
['BAD count', '[Other] upload_1 2025-02-11', 'hits', 'MEDIOCRE count', 'Main status', 'GOOD count']

>  <inspirations>  (45) 
None

>  <subsites>  (45) 
None

>  <reference>  (45) 


>  <observation_longname>  (45) 
7go6_A_201_v1

>  <ConformerSites alias>  (45) 
14a - 7go6/A/201

>  <CanonSites alias>  (45) 
14 - 7go6/A/201/1

>  <CrystalformSites alias>  (45) 
F2ak - 7go6/A/201/1

>  <Quatassemblies alias>  (45) 
A1 - monomer

>  <Crystalforms alias>  (45) 
F2 - EVD68_Reference_20230131

>  <ConformerSites upload name>  (45) 
14a - 7go6/A/201

>  <CanonSites upload name>  (45) 
14 - 7go6/A/201/1

>  <CrystalformSites upload name>  (45) 
F2ak - 7go6/A/201/1

>  <Quatassemblies upload name>  (45) 
A1 - monomer

>  <Crystalforms upload name>  (45) 
F2 - EVD68_Reference_20230131

>  <ConformerSites short tag>  (45) 
14a - 7go6/A/201

>  <CanonSites short tag>  (45) 
14 - 7go6/A/201/1

>  <CrystalformSites short tag>  (45) 
F2ak - 7go6/A/201/1

>  <Quatassemblies short tag>  (45) 
A1 - monomer

>  <Crystalforms short tag>  (45) 
F2 - EVD68_Reference_20230131

>  <Centroid res>  (45) 
7go6/B/113/A_v1

>  <Experiment code>  (45) 
7go6

>  <Pose>  (45) 
7go6-a

$$$$
7goo-a
     RDKit          3D

 15 16  0  0  0  0  0  0  0  0999 V2000
  -13.1660  -23.8320   29.6720 N   0  0  0  0  0  0  0  0  0  0  0  0
  -13.6950  -23.8540   30.9030 C   0  0  0  0  0  0  0  0  0  0  0  0
  -14.7580  -24.9520   31.1080 C   0  0  0  0  0  0  0  0  0  0  0  0
  -12.5810  -21.4920   34.0850 C   0  0  0  0  0  0  0  0  0  0  0  0
  -11.7250  -22.1710   35.1350 C   0  0  0  0  0  0  0  0  0  0  0  0
  -10.4650  -21.3760   35.4120 C   0  0  0  0  0  0  0  0  0  0  0  0
  -10.4460  -21.2850   32.9260 C   0  0  0  0  0  0  0  0  0  0  0  0
  -13.3470  -23.0660   31.9320 N   0  0  0  0  0  0  0  0  0  0  0  0
  -11.5240  -22.9910   28.1100 C   0  0  0  0  0  0  0  0  0  0  0  0
  -15.5690  -24.7660   32.2620 O   0  0  0  0  0  0  0  0  0  0  0  0
  -12.1860  -22.9410   29.4510 C   0  0  0  0  0  0  0  0  0  0  0  0
  -11.7630  -22.0760   30.4450 C   0  0  0  0  0  0  0  0  0  0  0  0
  -12.3600  -22.1860   31.7030 C   0  0  0  0  0  0  0  0  0  0  0  0
  -10.0760  -20.5630   34.1990 C   0  0  0  0  0  0  0  0  0  0  0  0
  -11.8960  -21.4760   32.7900 N   0  0  0  0  0  0  0  0  0  0  0  0
  9 11  1  0
 12 11  1  0
 12 13  2  0
 11  1  2  0
  7 14  1  0
  7 15  1  0
 14  6  1  0
  1  2  1  0
 13 15  1  0
 13  8  1  0
 15  4  1  0
  2  8  2  0
  2  3  1  0
  6  5  1  0
  4  5  1  0
  3 10  1  0
M  END
>  <id>  (46) 
46

>  <inchikey>  (46) 
GZINCFOQQRVKFL-UHFFFAOYSA-N

>  <alias>  (46) 
7goo-a

>  <smiles>  (46) 
Cc1cc(N2CCCCC2)nc(CO)n1

>  <path>  (46) 
/opt/xchem-fragalysis-2/maxwin/BulkDock/TARGETS/D68EV3C/aligned_files/7goo-a/7goo-a_hippo.pdb

>  <distance_score>  (46) 
None

>  <energy_score>  (46) 
None

>  <compound>  (46) 
GZINCFOQQRVKFL-UHFFFAOYSA-N

>  <compound_id>  (46) 
38

>  <target>  (46) 
D68EV3C

>  <tags>  (46) 
['BAD count', '[Other] upload_1 2025-02-11', 'hits', 'MEDIOCRE count', 'Main status', 'GOOD count']

>  <inspirations>  (46) 
None

>  <subsites>  (46) 
None

>  <reference>  (46) 


>  <observation_longname>  (46) 
7goo_B_201_v1

>  <ConformerSites alias>  (46) 
5d - 7goo/B/201

>  <CanonSites alias>  (46) 
5 - B1120/A/308/1

>  <CrystalformSites alias>  (46) 
F2r - 7goj/A/201/1

>  <Quatassemblies alias>  (46) 
A1 - monomer

>  <Crystalforms alias>  (46) 
F2 - EVD68_Reference_20230131

>  <ConformerSites upload name>  (46) 
5d - 7goo/B/201

>  <CanonSites upload name>  (46) 
5 - D68EV3CPROB-x1120/A/308/1

>  <CrystalformSites upload name>  (46) 
F2r - 7goj/A/201/1

>  <Quatassemblies upload name>  (46) 
A1 - monomer

>  <Crystalforms upload name>  (46) 
F2 - EVD68_Reference_20230131

>  <ConformerSites short tag>  (46) 
5d - 7goo/B/201

>  <CanonSites short tag>  (46) 
5 - B1120/A/308/1

>  <CrystalformSites short tag>  (46) 
F2r - 7goj/A/201/1

>  <Quatassemblies short tag>  (46) 
A1 - monomer

>  <Crystalforms short tag>  (46) 
F2 - EVD68_Reference_20230131

>  <Centroid res>  (46) 
D68EV3CPROB-x1120/B/115/A_v1

>  <Experiment code>  (46) 
7goo

>  <Pose>  (46) 
7goo-a

$$$$
7gop-a
     RDKit          3D

 14 14  0  0  0  0  0  0  0  0999 V2000
  -11.3160  -25.1120   27.9180 N   0  0  0  0  0  0  0  0  0  0  0  0
  -12.3950  -22.3820   30.2870 N   0  0  0  0  0  0  0  0  0  0  0  0
  -11.5380  -24.2760   28.9680 C   0  0  0  0  0  0  0  0  0  0  0  0
  -11.9230  -23.3650   31.0190 C   0  0  0  0  0  0  0  0  0  0  0  0
  -12.1040  -23.1550   32.4860 C   0  0  0  0  0  0  0  0  0  0  0  0
  -11.3790  -24.4910   30.3330 C   0  0  0  0  0  0  0  0  0  0  0  0
  -10.7330  -25.6150   30.9250 C   0  0  0  0  0  0  0  0  0  0  0  0
  -10.7450  -26.4400   28.0970 C   0  0  0  0  0  0  0  0  0  0  0  0
  -11.6670  -24.7260   26.5560 C   0  0  0  0  0  0  0  0  0  0  0  0
  -13.1560  -24.7880   26.2450 C   0  0  0  0  0  0  0  0  0  0  0  0
  -13.6410  -24.0850   25.3550 O   0  0  0  0  0  0  0  0  0  0  0  0
  -13.8710  -25.6320   26.9720 N   0  0  0  0  0  0  0  0  0  0  0  0
  -12.2470  -22.7400   28.6960 S   0  0  0  0  0  0  0  0  0  0  0  0
  -10.2040  -26.5510   31.3140 N   0  0  0  0  0  0  0  0  0  0  0  0
  8  1  1  0
  1  9  1  0
  9 10  1  0
 10 11  2  0
 10 12  1  0
  1  3  1  0
  3 13  1  0
 13  2  1  0
  2  4  2  0
  4  5  1  0
  4  6  1  0
  6  7  1  0
  7 14  3  0
  3  6  2  0
M  END
>  <id>  (47) 
47

>  <inchikey>  (47) 
BCFQGXBWVPWHCV-UHFFFAOYSA-N

>  <alias>  (47) 
7gop-a

>  <smiles>  (47) 
Cc1nsc(N(C)CC(N)=O)c1C#N

>  <path>  (47) 
/opt/xchem-fragalysis-2/maxwin/BulkDock/TARGETS/D68EV3C/aligned_files/7gop-a/7gop-a.pdb

>  <distance_score>  (47) 
None

>  <energy_score>  (47) 
None

>  <compound>  (47) 
BCFQGXBWVPWHCV-UHFFFAOYSA-N

>  <compound_id>  (47) 
39

>  <target>  (47) 
D68EV3C

>  <tags>  (47) 
['BAD count', '[Other] upload_1 2025-02-11', 'hits', 'MEDIOCRE count', 'Main status', 'GOOD count']

>  <inspirations>  (47) 
None

>  <subsites>  (47) 
None

>  <reference>  (47) 


>  <observation_longname>  (47) 
7gop_B_201_v1

>  <ConformerSites alias>  (47) 
5e - 7gop/B/201

>  <CanonSites alias>  (47) 
5 - B1120/A/308/1

>  <CrystalformSites alias>  (47) 
F2r - 7goj/A/201/1

>  <Quatassemblies alias>  (47) 
A1 - monomer

>  <Crystalforms alias>  (47) 
F2 - EVD68_Reference_20230131

>  <ConformerSites upload name>  (47) 
5e - 7gop/B/201

>  <CanonSites upload name>  (47) 
5 - D68EV3CPROB-x1120/A/308/1

>  <CrystalformSites upload name>  (47) 
F2r - 7goj/A/201/1

>  <Quatassemblies upload name>  (47) 
A1 - monomer

>  <Crystalforms upload name>  (47) 
F2 - EVD68_Reference_20230131

>  <ConformerSites short tag>  (47) 
5e - 7gop/B/201

>  <CanonSites short tag>  (47) 
5 - B1120/A/308/1

>  <CrystalformSites short tag>  (47) 
F2r - 7goj/A/201/1

>  <Quatassemblies short tag>  (47) 
A1 - monomer

>  <Crystalforms short tag>  (47) 
F2 - EVD68_Reference_20230131

>  <Centroid res>  (47) 
D68EV3CPROB-x1120/B/115/A_v1

>  <Experiment code>  (47) 
7gop

>  <Pose>  (47) 
7gop-a

$$$$
7goq-a
     RDKit          3D

 14 15  0  0  0  0  0  0  0  0999 V2000
  -12.8520  -24.3700    8.1630 N   0  0  0  0  0  0  0  0  0  0  0  0
   -9.3620  -22.5300   13.7560 C   0  0  0  0  0  0  0  0  0  0  0  0
  -10.2140  -21.6880   12.8870 C   0  0  0  0  0  0  0  0  0  0  0  0
  -12.0170  -25.8410    9.8880 C   0  0  0  0  0  0  0  0  0  0  0  0
  -11.7800  -26.8150    8.9200 C   0  0  0  0  0  0  0  0  0  0  0  0
  -12.1070  -26.5760    7.5910 C   0  0  0  0  0  0  0  0  0  0  0  0
  -12.5450  -24.6330    9.4390 C   0  0  0  0  0  0  0  0  0  0  0  0
  -11.7270  -24.9040   12.1940 N   0  0  0  0  0  0  0  0  0  0  0  0
  -12.8250  -27.0580   11.9730 C   0  0  0  0  0  0  0  0  0  0  0  0
   -9.7380  -24.1640   11.4330 O   0  0  0  0  0  0  0  0  0  0  0  0
  -11.7790  -26.1230   11.3710 C   0  0  1  0  0  0  0  0  0  0  0  0
  -10.6630  -24.0930   12.2320 C   0  0  0  0  0  0  0  0  0  0  0  0
  -10.6890  -23.0600   13.2800 C   0  0  0  0  0  0  0  0  0  0  0  0
  -12.6460  -25.3480    7.2600 C   0  0  0  0  0  0  0  0  0  0  0  0
  5  6  2  0
  5  4  1  0
 11  9  1  1
  6 14  1  0
 11  4  1  0
 11  8  1  0
  4  7  2  0
 14  1  2  0
  8 12  1  0
  7  1  1  0
 10 12  2  0
 12 13  1  0
 13  2  1  0
 13  3  1  0
  2  3  1  0
M  END
>  <id>  (48) 
48

>  <inchikey>  (48) 
XMSIZXIEDPYJDR-QMMMGPOBSA-N

>  <alias>  (48) 
7goq-a

>  <smiles>  (48) 
C[C@H](NC(=O)C1CC1)c1cccnc1

>  <path>  (48) 
/opt/xchem-fragalysis-2/maxwin/BulkDock/TARGETS/D68EV3C/aligned_files/7goq-a/7goq-a.pdb

>  <distance_score>  (48) 
None

>  <energy_score>  (48) 
None

>  <compound>  (48) 
XMSIZXIEDPYJDR-UHFFFAOYSA-N

>  <compound_id>  (48) 
40

>  <target>  (48) 
D68EV3C

>  <tags>  (48) 
['BAD count', '[Other] upload_1 2025-02-11', 'hits', 'MEDIOCRE count', 'Main status', 'GOOD count']

>  <inspirations>  (48) 
None

>  <subsites>  (48) 
None

>  <reference>  (48) 


>  <observation_longname>  (48) 
7goq_A_201_v1

>  <ConformerSites alias>  (48) 
4a - 7gp7/A/201

>  <CanonSites alias>  (48) 
4 - 7gp7/A/201/1

>  <CrystalformSites alias>  (48) 
F2q - 7gp7/A/201/1

>  <Quatassemblies alias>  (48) 
A1 - monomer

>  <Crystalforms alias>  (48) 
F2 - EVD68_Reference_20230131

>  <ConformerSites upload name>  (48) 
4a - 7gp7/A/201

>  <CanonSites upload name>  (48) 
4 - 7gp7/A/201/1

>  <CrystalformSites upload name>  (48) 
F2q - 7gp7/A/201/1

>  <Quatassemblies upload name>  (48) 
A1 - monomer

>  <Crystalforms upload name>  (48) 
F2 - EVD68_Reference_20230131

>  <ConformerSites short tag>  (48) 
4a - 7gp7/A/201

>  <CanonSites short tag>  (48) 
4 - 7gp7/A/201/1

>  <CrystalformSites short tag>  (48) 
F2q - 7gp7/A/201/1

>  <Quatassemblies short tag>  (48) 
A1 - monomer

>  <Crystalforms short tag>  (48) 
F2 - EVD68_Reference_20230131

>  <Centroid res>  (48) 
7gp7/A/6/A_v1

>  <Experiment code>  (48) 
7goq

>  <Pose>  (48) 
7goq-a

$$$$
7gor-a
     RDKit          3D

 15 16  0  0  0  0  0  0  0  0999 V2000
  -11.7490  -24.6660   27.8520 N   0  0  0  0  0  0  0  0  0  0  0  0
  -11.4660  -23.3680   27.7920 C   0  0  0  0  0  0  0  0  0  0  0  0
  -11.2270  -23.1880   31.4850 C   0  0  0  0  0  0  0  0  0  0  0  0
  -12.6150  -22.0410   32.9450 C   0  0  0  0  0  0  0  0  0  0  0  0
  -11.7550  -22.1980   34.0100 C   0  0  0  0  0  0  0  0  0  0  0  0
  -10.5790  -22.8980   33.8140 C   0  0  0  0  0  0  0  0  0  0  0  0
  -10.9940  -23.6360   30.1890 N   0  0  0  0  0  0  0  0  0  0  0  0
   -9.7360  -25.9510   27.6230 C   0  0  0  0  0  0  0  0  0  0  0  0
  -11.4820  -22.7470   26.7370 O   0  0  0  0  0  0  0  0  0  0  0  0
  -10.8840  -25.5790   28.5460 C   0  0  1  0  0  0  0  0  0  0  0  0
  -10.3490  -24.9230   29.9170 C   0  0  0  0  0  0  0  0  0  0  0  0
  -11.0800  -22.6950   29.0750 C   0  0  0  0  0  0  0  0  0  0  0  0
  -10.3170  -23.3880   32.5580 C   0  0  0  0  0  0  0  0  0  0  0  0
   -9.1770  -24.0850   32.3670 F   0  0  0  0  0  0  0  0  0  0  0  0
  -12.3710  -22.5150   31.7120 N   0  0  0  0  0  0  0  0  0  0  0  0
  9  2  2  0
  2 12  1  0
  2  1  1  0
 12  7  1  0
 10  8  1  6
  1 10  1  0
 10 11  1  0
  7 11  1  0
  7  3  1  0
  3 15  1  0
  3 13  2  0
 15  4  2  0
 14 13  1  0
 13  6  1  0
  4  5  1  0
  6  5  2  0
M  END
>  <id>  (49) 
49

>  <inchikey>  (49) 
ADIKUTCTGUZIDP-ZETCQYMHSA-N

>  <alias>  (49) 
7gor-a

>  <smiles>  (49) 
C[C@H]1CN(c2ncccc2F)CC(=O)N1

>  <path>  (49) 
/opt/xchem-fragalysis-2/maxwin/BulkDock/TARGETS/D68EV3C/aligned_files/7gor-a/7gor-a.pdb

>  <distance_score>  (49) 
None

>  <energy_score>  (49) 
None

>  <compound>  (49) 
ADIKUTCTGUZIDP-UHFFFAOYSA-N

>  <compound_id>  (49) 
41

>  <target>  (49) 
D68EV3C

>  <tags>  (49) 
['BAD count', '[Other] upload_1 2025-02-11', 'hits', 'MEDIOCRE count', 'Main status', 'GOOD count']

>  <inspirations>  (49) 
None

>  <subsites>  (49) 
None

>  <reference>  (49) 


>  <observation_longname>  (49) 
7gor_A_201_v1

>  <ConformerSites alias>  (49) 
4a - 7gp7/A/201

>  <CanonSites alias>  (49) 
4 - 7gp7/A/201/1

>  <CrystalformSites alias>  (49) 
F2p - 7gp4/A/201/1

>  <Quatassemblies alias>  (49) 
A1 - monomer

>  <Crystalforms alias>  (49) 
F2 - EVD68_Reference_20230131

>  <ConformerSites upload name>  (49) 
4a - 7gp7/A/201

>  <CanonSites upload name>  (49) 
4 - 7gp7/A/201/1

>  <CrystalformSites upload name>  (49) 
F2p - 7gp4/A/201/1

>  <Quatassemblies upload name>  (49) 
A1 - monomer

>  <Crystalforms upload name>  (49) 
F2 - EVD68_Reference_20230131

>  <ConformerSites short tag>  (49) 
4a - 7gp7/A/201

>  <CanonSites short tag>  (49) 
4 - 7gp7/A/201/1

>  <CrystalformSites short tag>  (49) 
F2p - 7gp4/A/201/1

>  <Quatassemblies short tag>  (49) 
A1 - monomer

>  <Crystalforms short tag>  (49) 
F2 - EVD68_Reference_20230131

>  <Centroid res>  (49) 
7gp7/A/6/A_v1

>  <Experiment code>  (49) 
7gor

>  <Pose>  (49) 
7gor-a

$$$$
7gqd-a
     RDKit          3D

 15 17  0  0  0  0  0  0  0  0999 V2000
   12.5720   -1.1240   14.6630 N   0  0  0  0  0  0  0  0  0  0  0  0
   14.0360    0.8440   12.4430 C   0  0  0  0  0  0  0  0  0  0  0  0
   12.6910    1.4650   12.7060 C   0  0  0  0  0  0  0  0  0  0  0  0
   11.9020    2.2470   11.8720 C   0  0  0  0  0  0  0  0  0  0  0  0
   10.7500    2.8310   12.3620 C   0  0  0  0  0  0  0  0  0  0  0  0
   10.3600    2.6080   13.6610 C   0  0  0  0  0  0  0  0  0  0  0  0
   12.2800    1.2250   14.0080 C   0  0  0  0  0  0  0  0  0  0  0  0
   13.2540   -0.8680   16.7470 N   0  0  0  0  0  0  0  0  0  0  0  0
   12.6460   -1.7410   15.8660 C   0  0  0  0  0  0  0  0  0  0  0  0
   12.2450   -2.8700   16.1510 O   0  0  0  0  0  0  0  0  0  0  0  0
   13.5790    0.3110   16.1430 C   0  0  0  0  0  0  0  0  0  0  0  0
   13.1820    0.2000   14.6620 C   0  0  1  0  0  0  0  0  0  0  0  0
   14.4650    0.2800   13.7990 C   0  0  0  0  0  0  0  0  0  0  0  0
   11.1160    1.7940   14.4910 C   0  0  0  0  0  0  0  0  0  0  0  0
   14.1010    1.2750   16.6750 O   0  0  0  0  0  0  0  0  0  0  0  0
  4  5  1  0
  4  3  2  0
  2  3  1  0
  2 13  1  0
  5  6  2  0
  3  7  1  0
 12 13  1  6
  6 14  1  0
  7 14  2  0
  7 12  1  0
 12 11  1  0
 12  1  1  0
 15 11  2  0
 11  8  1  0
  1  9  1  0
  8  9  1  0
  9 10  2  0
M  END
>  <id>  (50) 
50

>  <inchikey>  (50) 
CDALGRHRPPTQPM-NSHDSACASA-N

>  <alias>  (50) 
7gqd-a

>  <smiles>  (50) 
O=C1NC(=O)[C@@]2(CCc3ccccc32)N1

>  <path>  (50) 
/opt/xchem-fragalysis-2/maxwin/BulkDock/TARGETS/D68EV3C/aligned_files/7gqd-a/7gqd-a.pdb

>  <distance_score>  (50) 
None

>  <energy_score>  (50) 
None

>  <compound>  (50) 
CDALGRHRPPTQPM-UHFFFAOYSA-N

>  <compound_id>  (50) 
42

>  <target>  (50) 
D68EV3C

>  <tags>  (50) 
['BAD count', '[Other] upload_1 2025-02-11', 'hits', 'MEDIOCRE count', 'Main status', 'GOOD count']

>  <inspirations>  (50) 
None

>  <subsites>  (50) 
None

>  <reference>  (50) 


>  <observation_longname>  (50) 
7gqd_B_201_v1

>  <ConformerSites alias>  (50) 
2a - 7gon/B/201

>  <CanonSites alias>  (50) 
2 - 7gon/B/201/1

>  <CrystalformSites alias>  (50) 
F2j - 7gqb/B/201/1

>  <Quatassemblies alias>  (50) 
A1 - monomer

>  <Crystalforms alias>  (50) 
F2 - EVD68_Reference_20230131

>  <ConformerSites upload name>  (50) 
2a - 7gon/B/201

>  <CanonSites upload name>  (50) 
2 - 7gon/B/201/1

>  <CrystalformSites upload name>  (50) 
F2j - 7gqb/B/201/1

>  <Quatassemblies upload name>  (50) 
A1 - monomer

>  <Crystalforms upload name>  (50) 
F2 - EVD68_Reference_20230131

>  <ConformerSites short tag>  (50) 
2a - 7gon/B/201

>  <CanonSites short tag>  (50) 
2 - 7gon/B/201/1

>  <CrystalformSites short tag>  (50) 
F2j - 7gqb/B/201/1

>  <Quatassemblies short tag>  (50) 
A1 - monomer

>  <Crystalforms short tag>  (50) 
F2 - EVD68_Reference_20230131

>  <Centroid res>  (50) 
7gon/B/47/B_v1

>  <Experiment code>  (50) 
7gqd

>  <Pose>  (50) 
7gqd-a

$$$$
7gqd-b
     RDKit          3D

 15 17  0  0  0  0  0  0  0  0999 V2000
   -7.7880   -3.4150    6.2060 N   0  0  0  0  0  0  0  0  0  0  0  0
   -5.0650   -1.4970    7.2250 C   0  0  0  0  0  0  0  0  0  0  0  0
   -5.9010   -0.4260    6.5930 C   0  0  0  0  0  0  0  0  0  0  0  0
   -5.5760    0.8870    6.2910 C   0  0  0  0  0  0  0  0  0  0  0  0
   -6.5030    1.7050    5.6710 C   0  0  0  0  0  0  0  0  0  0  0  0
   -7.7450    1.2120    5.3360 C   0  0  0  0  0  0  0  0  0  0  0  0
   -7.1640   -0.9050    6.2870 C   0  0  0  0  0  0  0  0  0  0  0  0
   -9.3400   -3.2460    7.7550 N   0  0  0  0  0  0  0  0  0  0  0  0
   -8.8530   -4.0400    6.7240 C   0  0  0  0  0  0  0  0  0  0  0  0
   -9.2850   -5.1320    6.3840 O   0  0  0  0  0  0  0  0  0  0  0  0
   -8.5970   -2.1220    7.9120 C   0  0  0  0  0  0  0  0  0  0  0  0
   -7.3990   -2.2340    6.9630 C   0  0  1  0  0  0  0  0  0  0  0  0
   -6.0970   -2.4770    7.7500 C   0  0  0  0  0  0  0  0  0  0  0  0
   -8.0810   -0.1000    5.6310 C   0  0  0  0  0  0  0  0  0  0  0  0
   -8.8840   -1.1400    8.5910 O   0  0  0  0  0  0  0  0  0  0  0  0
  4  5  1  0
  4  3  2  0
  2  3  1  0
  2 13  1  0
  5  6  2  0
  3  7  1  0
 12 13  1  1
  6 14  1  0
  7 14  2  0
  7 12  1  0
 12 11  1  0
 12  1  1  0
 15 11  2  0
 11  8  1  0
  1  9  1  0
  8  9  1  0
  9 10  2  0
M  END
>  <id>  (51) 
51

>  <inchikey>  (51) 
CDALGRHRPPTQPM-NSHDSACASA-N

>  <alias>  (51) 
7gqd-b

>  <smiles>  (51) 
O=C1NC(=O)[C@@]2(CCc3ccccc32)N1

>  <path>  (51) 
/opt/xchem-fragalysis-2/maxwin/BulkDock/TARGETS/D68EV3C/aligned_files/7gqd-b/7gqd-b.pdb

>  <distance_score>  (51) 
None

>  <energy_score>  (51) 
None

>  <compound>  (51) 
CDALGRHRPPTQPM-UHFFFAOYSA-N

>  <compound_id>  (51) 
42

>  <target>  (51) 
D68EV3C

>  <tags>  (51) 
['BAD count', '[Other] upload_1 2025-02-11', 'hits', 'MEDIOCRE count', 'Main status', 'GOOD count']

>  <inspirations>  (51) 
None

>  <subsites>  (51) 
None

>  <reference>  (51) 


>  <observation_longname>  (51) 
7gqd_B_202_v1

>  <ConformerSites alias>  (51) 
3a - 7gpw/B/202

>  <CanonSites alias>  (51) 
3 - 7gpw/B/202/1

>  <CrystalformSites alias>  (51) 
F2l - 7go5/B/401/1

>  <Quatassemblies alias>  (51) 
A1 - monomer

>  <Crystalforms alias>  (51) 
F2 - EVD68_Reference_20230131

>  <ConformerSites upload name>  (51) 
3a - 7gpw/B/202

>  <CanonSites upload name>  (51) 
3 - 7gpw/B/202/1

>  <CrystalformSites upload name>  (51) 
F2l - 7go5/B/401/1

>  <Quatassemblies upload name>  (51) 
A1 - monomer

>  <Crystalforms upload name>  (51) 
F2 - EVD68_Reference_20230131

>  <ConformerSites short tag>  (51) 
3a - 7gpw/B/202

>  <CanonSites short tag>  (51) 
3 - 7gpw/B/202/1

>  <CrystalformSites short tag>  (51) 
F2l - 7go5/B/401/1

>  <Quatassemblies short tag>  (51) 
A1 - monomer

>  <Crystalforms short tag>  (51) 
F2 - EVD68_Reference_20230131

>  <Centroid res>  (51) 
7gpw/B/74/B_v1

>  <Experiment code>  (51) 
7gqd

>  <Pose>  (51) 
7gqd-b

$$$$
7gos-a
     RDKit          3D

 17 19  0  0  0  0  0  0  0  0999 V2000
  -11.8120  -22.6850   29.5940 C   0  0  0  0  0  0  0  0  0  0  0  0
  -11.9760  -23.2130   26.8630 C   0  0  0  0  0  0  0  0  0  0  0  0
  -12.1290  -23.9620   29.1480 C   0  0  0  0  0  0  0  0  0  0  0  0
   -9.9840  -23.9290   34.3220 C   0  0  0  0  0  0  0  0  0  0  0  0
   -9.6560  -24.5610   33.1230 C   0  0  0  0  0  0  0  0  0  0  0  0
  -10.1830  -24.1200   31.9180 C   0  0  0  0  0  0  0  0  0  0  0  0
  -11.0580  -23.0440   31.9560 C   0  0  0  0  0  0  0  0  0  0  0  0
  -11.3970  -22.3990   33.1440 C   0  0  0  0  0  0  0  0  0  0  0  0
  -10.8520  -22.8430   34.3450 C   0  0  0  0  0  0  0  0  0  0  0  0
  -12.3160  -21.3790   32.8930 N   0  0  0  0  0  0  0  0  0  0  0  0
  -12.5170  -21.4350   31.6020 C   0  0  0  0  0  0  0  0  0  0  0  0
  -11.8000  -22.4010   30.9660 N   0  0  0  0  0  0  0  0  0  0  0  0
  -11.5550  -21.6840   28.6780 C   0  0  0  0  0  0  0  0  0  0  0  0
  -11.6410  -21.9490   27.3260 C   0  0  0  0  0  0  0  0  0  0  0  0
  -12.2060  -24.2170   27.7930 C   0  0  0  0  0  0  0  0  0  0  0  0
  -12.1150  -23.4830   25.3950 C   0  0  0  0  0  0  0  0  0  0  0  0
  -12.4940  -22.3460   24.6130 O   0  0  0  0  0  0  0  0  0  0  0  0
 11 10  2  0
 11 12  1  0
  3 15  1  0
  3  1  2  0
 10  8  1  0
 15  2  2  0
 17 16  1  0
 12  1  1  0
 12  7  1  0
  1 13  1  0
  8  7  2  0
  8  9  1  0
  2 16  1  0
  2 14  1  0
  7  6  1  0
  9  4  2  0
 13 14  2  0
  6  5  2  0
  4  5  1  0
M  END
>  <id>  (52) 
52

>  <inchikey>  (52) 
IRZKUEWQJPIBJF-UHFFFAOYSA-N

>  <alias>  (52) 
7gos-a

>  <smiles>  (52) 
OCc1ccc(-n2cnc3ccccc32)cc1

>  <path>  (52) 
/opt/xchem-fragalysis-2/maxwin/BulkDock/TARGETS/D68EV3C/aligned_files/7gos-a/7gos-a.pdb

>  <distance_score>  (52) 
None

>  <energy_score>  (52) 
None

>  <compound>  (52) 
IRZKUEWQJPIBJF-UHFFFAOYSA-N

>  <compound_id>  (52) 
43

>  <target>  (52) 
D68EV3C

>  <tags>  (52) 
['BAD count', '[Other] upload_1 2025-02-11', 'hits', 'MEDIOCRE count', 'Main status', 'GOOD count']

>  <inspirations>  (52) 
None

>  <subsites>  (52) 
None

>  <reference>  (52) 


>  <observation_longname>  (52) 
7gos_B_201_v1

>  <ConformerSites alias>  (52) 
4a - 7gp7/A/201

>  <CanonSites alias>  (52) 
4 - 7gp7/A/201/1

>  <CrystalformSites alias>  (52) 
F2p - 7gp4/A/201/1

>  <Quatassemblies alias>  (52) 
A1 - monomer

>  <Crystalforms alias>  (52) 
F2 - EVD68_Reference_20230131

>  <ConformerSites upload name>  (52) 
4a - 7gp7/A/201

>  <CanonSites upload name>  (52) 
4 - 7gp7/A/201/1

>  <CrystalformSites upload name>  (52) 
F2p - 7gp4/A/201/1

>  <Quatassemblies upload name>  (52) 
A1 - monomer

>  <Crystalforms upload name>  (52) 
F2 - EVD68_Reference_20230131

>  <ConformerSites short tag>  (52) 
4a - 7gp7/A/201

>  <CanonSites short tag>  (52) 
4 - 7gp7/A/201/1

>  <CrystalformSites short tag>  (52) 
F2p - 7gp4/A/201/1

>  <Quatassemblies short tag>  (52) 
A1 - monomer

>  <Crystalforms short tag>  (52) 
F2 - EVD68_Reference_20230131

>  <Centroid res>  (52) 
7gp7/A/6/A_v1

>  <Experiment code>  (52) 
7gos

>  <Pose>  (52) 
7gos-a

$$$$
7gpf-a
     RDKit          3D

 15 16  0  0  0  0  0  0  0  0999 V2000
   -1.1510    1.5180   26.9700 N   0  0  0  0  0  0  0  0  0  0  0  0
    1.9860    5.6130   26.5050 C   0  0  0  0  0  0  0  0  0  0  0  0
    1.9960    4.4330   27.2360 C   0  0  0  0  0  0  0  0  0  0  0  0
   -0.4440    3.9850   27.3090 C   0  0  0  0  0  0  0  0  0  0  0  0
   -1.3510    2.8350   27.5690 C   0  0  1  0  0  0  0  0  0  0  0  0
   -2.8160    3.1550   27.7470 C   0  0  0  0  0  0  0  0  0  0  0  0
   -2.5130    1.0360   26.6700 C   0  0  0  0  0  0  0  0  0  0  0  0
    0.8580    3.6690   27.4900 N   0  0  0  0  0  0  0  0  0  0  0  0
    5.5020    3.4760   27.5060 C   0  0  0  0  0  0  0  0  0  0  0  0
   -0.8930    5.0580   26.9140 O   0  0  0  0  0  0  0  0  0  0  0  0
    4.2820    4.2440   27.1140 C   0  0  0  0  0  0  0  0  0  0  0  0
    4.3590    5.3980   26.3370 C   0  0  0  0  0  0  0  0  0  0  0  0
    3.1970    6.0830   26.0360 C   0  0  0  0  0  0  0  0  0  0  0  0
   -3.4590    2.2470   26.7270 C   0  0  0  0  0  0  0  0  0  0  0  0
    3.1100    3.7730   27.5620 N   0  0  0  0  0  0  0  0  0  0  0  0
  7  1  1  0
  7 14  1  0
  1  5  1  0
 14  6  1  0
  5  6  1  0
  5  4  1  6
  9 11  1  0
 15 11  2  0
 15  3  1  0
  8  4  1  0
  8  3  1  0
 11 12  1  0
  4 10  2  0
  3  2  2  0
 12 13  2  0
  2 13  1  0
M  END
>  <id>  (53) 
53

>  <inchikey>  (53) 
QILVMVSMHKJUDZ-SECBINFHSA-N

>  <alias>  (53) 
7gpf-a

>  <smiles>  (53) 
Cc1cccc(NC(=O)[C@H]2CCCN2)n1

>  <path>  (53) 
/opt/xchem-fragalysis-2/maxwin/BulkDock/TARGETS/D68EV3C/aligned_files/7gpf-a/7gpf-a.pdb

>  <distance_score>  (53) 
None

>  <energy_score>  (53) 
None

>  <compound>  (53) 
QILVMVSMHKJUDZ-UHFFFAOYSA-N

>  <compound_id>  (53) 
44

>  <target>  (53) 
D68EV3C

>  <tags>  (53) 
['BAD count', '[Other] upload_1 2025-02-11', '[Other] iter1_frags', 'hits', 'MEDIOCRE count', 'Main status', 'GOOD count']

>  <inspirations>  (53) 
None

>  <subsites>  (53) 
None

>  <reference>  (53) 


>  <observation_longname>  (53) 
7gpf_A_201_v1

>  <ConformerSites alias>  (53) 
1a - 7gp9/A/201

>  <CanonSites alias>  (53) 
1 - 7gp9/A/201/1

>  <CrystalformSites alias>  (53) 
F2a - 7gox/A/201/1

>  <Quatassemblies alias>  (53) 
A1 - monomer

>  <Crystalforms alias>  (53) 
F2 - EVD68_Reference_20230131

>  <ConformerSites upload name>  (53) 
1a - 7gp9/A/201

>  <CanonSites upload name>  (53) 
1 - 7gp9/A/201/1

>  <CrystalformSites upload name>  (53) 
F2a - 7gox/A/201/1

>  <Quatassemblies upload name>  (53) 
A1 - monomer

>  <Crystalforms upload name>  (53) 
F2 - EVD68_Reference_20230131

>  <ConformerSites short tag>  (53) 
1a - 7gp9/A/201

>  <CanonSites short tag>  (53) 
1 - 7gp9/A/201/1

>  <CrystalformSites short tag>  (53) 
F2a - 7gox/A/201/1

>  <Quatassemblies short tag>  (53) 
A1 - monomer

>  <Crystalforms short tag>  (53) 
F2 - EVD68_Reference_20230131

>  <Centroid res>  (53) 
7gp9/A/163/A_v1

>  <Experiment code>  (53) 
7gpf

>  <Pose>  (53) 
7gpf-a

$$$$
7gqm-a
     RDKit          3D

 13 14  0  0  0  0  0  0  0  0999 V2000
  -10.9670  -24.6010   29.7500 N   0  0  0  0  0  0  0  0  0  0  0  0
  -10.2760  -23.0480   31.4660 C   0  0  0  0  0  0  0  0  0  0  0  0
  -10.7480  -21.9670   32.2100 C   0  0  0  0  0  0  0  0  0  0  0  0
  -10.3430  -21.7820   33.5230 C   0  0  0  0  0  0  0  0  0  0  0  0
   -9.4560  -22.6560   34.1070 C   0  0  0  0  0  0  0  0  0  0  0  0
   -8.9650  -23.7190   33.3820 C   0  0  0  0  0  0  0  0  0  0  0  0
  -11.0300  -22.2530   29.3140 N   0  0  0  0  0  0  0  0  0  0  0  0
  -11.6860  -23.8000   27.6220 C   0  0  0  0  0  0  0  0  0  0  0  0
  -11.8740  -24.0530   26.2960 O   0  0  0  0  0  0  0  0  0  0  0  0
  -11.4780  -22.5140   28.0780 C   0  0  0  0  0  0  0  0  0  0  0  0
  -10.7910  -23.3170   30.0960 C   0  0  0  0  0  0  0  0  0  0  0  0
  -11.4110  -24.8250   28.5070 C   0  0  0  0  0  0  0  0  0  0  0  0
   -9.3670  -23.9140   32.0690 C   0  0  0  0  0  0  0  0  0  0  0  0
  9  8  1  0
 10  8  2  0
 10  7  1  0
  8 12  1  0
  7 11  2  0
 12  1  2  0
 11  1  1  0
 11  2  1  0
  2  3  2  0
  2 13  1  0
  3  4  1  0
 13  6  2  0
  4  5  2  0
  6  5  1  0
M  END
>  <id>  (54) 
54

>  <inchikey>  (54) 
VXOJYMHSOARYSV-UHFFFAOYSA-N

>  <alias>  (54) 
7gqm-a

>  <smiles>  (54) 
Oc1cnc(-c2ccccc2)nc1

>  <path>  (54) 
/opt/xchem-fragalysis-2/maxwin/BulkDock/TARGETS/D68EV3C/aligned_files/7gqm-a/7gqm-a.pdb

>  <distance_score>  (54) 
None

>  <energy_score>  (54) 
None

>  <compound>  (54) 
VXOJYMHSOARYSV-UHFFFAOYSA-N

>  <compound_id>  (54) 
45

>  <target>  (54) 
D68EV3C

>  <tags>  (54) 
['BAD count', '[Other] upload_1 2025-02-11', 'hits', 'MEDIOCRE count', 'Main status', 'GOOD count']

>  <inspirations>  (54) 
None

>  <subsites>  (54) 
None

>  <reference>  (54) 


>  <observation_longname>  (54) 
7gqm_A_201_v1

>  <ConformerSites alias>  (54) 
4a - 7gp7/A/201

>  <CanonSites alias>  (54) 
4 - 7gp7/A/201/1

>  <CrystalformSites alias>  (54) 
F2p - 7gp4/A/201/1

>  <Quatassemblies alias>  (54) 
A1 - monomer

>  <Crystalforms alias>  (54) 
F2 - EVD68_Reference_20230131

>  <ConformerSites upload name>  (54) 
4a - 7gp7/A/201

>  <CanonSites upload name>  (54) 
4 - 7gp7/A/201/1

>  <CrystalformSites upload name>  (54) 
F2p - 7gp4/A/201/1

>  <Quatassemblies upload name>  (54) 
A1 - monomer

>  <Crystalforms upload name>  (54) 
F2 - EVD68_Reference_20230131

>  <ConformerSites short tag>  (54) 
4a - 7gp7/A/201

>  <CanonSites short tag>  (54) 
4 - 7gp7/A/201/1

>  <CrystalformSites short tag>  (54) 
F2p - 7gp4/A/201/1

>  <Quatassemblies short tag>  (54) 
A1 - monomer

>  <Crystalforms short tag>  (54) 
F2 - EVD68_Reference_20230131

>  <Centroid res>  (54) 
7gp7/A/6/A_v1

>  <Experiment code>  (54) 
7gqm

>  <Pose>  (54) 
7gqm-a

$$$$
7got-a
     RDKit          3D

 16 17  0  0  0  0  0  0  0  0999 V2000
   12.2730    0.4790   15.9250 N   0  0  0  0  0  0  0  0  0  0  0  0
   13.2370    2.2240   17.3380 C   0  0  0  0  0  0  0  0  0  0  0  0
   13.1700    0.7930   16.8440 C   0  0  0  0  0  0  0  0  0  0  0  0
   12.3040   -0.9140   15.8530 C   0  0  0  0  0  0  0  0  0  0  0  0
   11.5090   -1.8000   15.1290 C   0  0  0  0  0  0  0  0  0  0  0  0
   11.6890   -3.1620   15.3150 C   0  0  0  0  0  0  0  0  0  0  0  0
   13.4620   -2.7680   16.9160 C   0  0  0  0  0  0  0  0  0  0  0  0
   16.0090    2.6650   15.3460 O   0  0  0  0  0  0  0  0  0  0  0  0
   15.4400    2.7140   16.4350 C   0  0  0  0  0  0  0  0  0  0  0  0
   16.1830    2.4140   17.7200 C   0  0  0  0  0  0  0  0  0  0  0  0
   16.5200    3.6760   18.5190 C   0  0  0  0  0  0  0  0  0  0  0  0
   15.3610    4.2360   19.3420 C   0  0  0  0  0  0  0  0  0  0  0  0
   14.1490    3.0280   16.5540 N   0  0  0  0  0  0  0  0  0  0  0  0
   13.8170   -0.2880   17.3430 N   0  0  0  0  0  0  0  0  0  0  0  0
   13.2660   -1.4070   16.7360 C   0  0  0  0  0  0  0  0  0  0  0  0
   12.6540   -3.6410   16.2000 C   0  0  0  0  0  0  0  0  0  0  0  0
  7 16  2  0
  7 15  1  0
 16  6  1  0
 15 14  1  0
 15  4  2  0
 14  3  2  0
  6  5  2  0
  4  5  1  0
  4  1  1  0
  3  2  1  0
  3  1  1  0
  2 13  1  0
 13  9  1  0
  8  9  2  0
  9 10  1  0
 10 11  1  0
 11 12  1  0
M  END
>  <id>  (55) 
55

>  <inchikey>  (55) 
MXDONONSXPZRMO-UHFFFAOYSA-N

>  <alias>  (55) 
7got-a

>  <smiles>  (55) 
CCCC(=O)NCc1nc2ccccc2[nH]1

>  <path>  (55) 
/opt/xchem-fragalysis-2/maxwin/BulkDock/TARGETS/D68EV3C/aligned_files/7got-a/7got-a.pdb

>  <distance_score>  (55) 
None

>  <energy_score>  (55) 
None

>  <compound>  (55) 
MXDONONSXPZRMO-UHFFFAOYSA-N

>  <compound_id>  (55) 
46

>  <target>  (55) 
D68EV3C

>  <tags>  (55) 
['BAD count', '[Other] upload_1 2025-02-11', 'hits', 'MEDIOCRE count', 'Main status', 'GOOD count']

>  <inspirations>  (55) 
None

>  <subsites>  (55) 
None

>  <reference>  (55) 


>  <observation_longname>  (55) 
7got_B_201_v1

>  <ConformerSites alias>  (55) 
2a - 7gon/B/201

>  <CanonSites alias>  (55) 
2 - 7gon/B/201/1

>  <CrystalformSites alias>  (55) 
F2j - 7gqb/B/201/1

>  <Quatassemblies alias>  (55) 
A1 - monomer

>  <Crystalforms alias>  (55) 
F2 - EVD68_Reference_20230131

>  <ConformerSites upload name>  (55) 
2a - 7gon/B/201

>  <CanonSites upload name>  (55) 
2 - 7gon/B/201/1

>  <CrystalformSites upload name>  (55) 
F2j - 7gqb/B/201/1

>  <Quatassemblies upload name>  (55) 
A1 - monomer

>  <Crystalforms upload name>  (55) 
F2 - EVD68_Reference_20230131

>  <ConformerSites short tag>  (55) 
2a - 7gon/B/201

>  <CanonSites short tag>  (55) 
2 - 7gon/B/201/1

>  <CrystalformSites short tag>  (55) 
F2j - 7gqb/B/201/1

>  <Quatassemblies short tag>  (55) 
A1 - monomer

>  <Crystalforms short tag>  (55) 
F2 - EVD68_Reference_20230131

>  <Centroid res>  (55) 
7gon/B/47/B_v1

>  <Experiment code>  (55) 
7got

>  <Pose>  (55) 
7got-a

$$$$
7gov-a
     RDKit          3D

 17 18  0  0  0  0  0  0  0  0999 V2000
   -1.7860   -8.3390   31.4330 N   0  0  0  0  0  0  0  0  0  0  0  0
    0.6550   -3.7360   38.2070 C   0  0  0  0  0  0  0  0  0  0  0  0
    0.0450   -4.4030   37.1740 C   0  0  0  0  0  0  0  0  0  0  0  0
    0.7260   -4.5010   35.9600 C   0  0  0  0  0  0  0  0  0  0  0  0
    0.3190   -6.5560   34.7190 C   0  0  0  0  0  0  0  0  0  0  0  0
   -0.4200   -7.1590   33.5680 C   0  0  0  0  0  0  0  0  0  0  0  0
   -0.9010   -7.3540   31.2390 C   0  0  0  0  0  0  0  0  0  0  0  0
    0.1540   -5.2300   34.8970 N   0  0  0  0  0  0  0  0  0  0  0  0
    2.7820   -4.0740   34.5170 C   0  0  0  0  0  0  0  0  0  0  0  0
    1.0130   -7.2460   35.4590 O   0  0  0  0  0  0  0  0  0  0  0  0
    1.9980   -3.9230   35.7960 C   0  0  0  0  0  0  0  0  0  0  0  0
   -1.9860   -8.7330   32.6960 C   0  0  0  0  0  0  0  0  0  0  0  0
   -1.3360   -8.1810   33.7840 C   0  0  0  0  0  0  0  0  0  0  0  0
    2.5440   -3.2370   36.8800 C   0  0  0  0  0  0  0  0  0  0  0  0
    1.8850   -3.1450   38.0920 C   0  0  0  0  0  0  0  0  0  0  0  0
   -0.2030   -6.7390   32.2600 C   0  0  0  0  0  0  0  0  0  0  0  0
    0.0140   -3.6840   39.4080 F   0  0  0  0  0  0  0  0  0  0  0  0
  9 11  1  0
 11 14  2  0
 11  4  1  0
 14 15  1  0
  7 16  1  0
  7  1  2  0
 16  6  2  0
  8  4  1  0
  8  5  1  0
  4  3  2  0
 15  2  2  0
  1 12  1  0
  6  5  1  0
  6 13  1  0
  5 10  2  0
  3  2  1  0
  2 17  1  0
 12 13  2  0
M  END
>  <id>  (56) 
56

>  <inchikey>  (56) 
CUFWRVYZYQAQCS-UHFFFAOYSA-N

>  <alias>  (56) 
7gov-a

>  <smiles>  (56) 
Cc1ccc(F)cc1NC(=O)c1ccncc1

>  <path>  (56) 
/opt/xchem-fragalysis-2/maxwin/BulkDock/TARGETS/D68EV3C/aligned_files/7gov-a/7gov-a.pdb

>  <distance_score>  (56) 
None

>  <energy_score>  (56) 
None

>  <compound>  (56) 
CUFWRVYZYQAQCS-UHFFFAOYSA-N

>  <compound_id>  (56) 
47

>  <target>  (56) 
D68EV3C

>  <tags>  (56) 
['BAD count', '[Other] upload_1 2025-02-11', 'hits', 'MEDIOCRE count', 'Main status', 'GOOD count']

>  <inspirations>  (56) 
None

>  <subsites>  (56) 
None

>  <reference>  (56) 


>  <observation_longname>  (56) 
7gov_B_201_v1

>  <ConformerSites alias>  (56) 
11a - 7gov/B/201

>  <CanonSites alias>  (56) 
11 - B0517/A/209/1

>  <CrystalformSites alias>  (56) 
F2ac - 7gov/B/201/1

>  <Quatassemblies alias>  (56) 
A1 - monomer

>  <Crystalforms alias>  (56) 
F2 - EVD68_Reference_20230131

>  <ConformerSites upload name>  (56) 
11a - 7gov/B/201

>  <CanonSites upload name>  (56) 
11 - D68EV3CPROB-x0517/A/209/1

>  <CrystalformSites upload name>  (56) 
F2ac - 7gov/B/201/1

>  <Quatassemblies upload name>  (56) 
A1 - monomer

>  <Crystalforms upload name>  (56) 
F2 - EVD68_Reference_20230131

>  <ConformerSites short tag>  (56) 
11a - 7gov/B/201

>  <CanonSites short tag>  (56) 
11 - B0517/A/209/1

>  <CrystalformSites short tag>  (56) 
F2ac - 7gov/B/201/1

>  <Quatassemblies short tag>  (56) 
A1 - monomer

>  <Crystalforms short tag>  (56) 
F2 - EVD68_Reference_20230131

>  <Centroid res>  (56) 
D68EV3CPROB-x0517/A/142/A_v1

>  <Experiment code>  (56) 
7gov

>  <Pose>  (56) 
7gov-a

$$$$
7gox-a
     RDKit          3D

 13 13  0  0  0  0  0  0  0  0999 V2000
    1.8900    4.0660   27.5100 N   0  0  0  0  0  0  0  0  0  0  0  0
    0.5530    3.6950   27.2490 C   0  0  0  0  0  0  0  0  0  0  0  0
   -0.4130    3.6300   28.2470 C   0  0  0  0  0  0  0  0  0  0  0  0
   -1.7100    3.2700   27.9180 C   0  0  0  0  0  0  0  0  0  0  0  0
   -2.0690    2.9670   26.6120 C   0  0  0  0  0  0  0  0  0  0  0  0
   -1.0960    3.0330   25.6270 C   0  0  0  0  0  0  0  0  0  0  0  0
   -3.4890    2.5950   26.2650 C   0  0  0  0  0  0  0  0  0  0  0  0
    4.5900    4.7060   28.3590 C   0  0  0  0  0  0  0  0  0  0  0  0
    4.0340    4.9970   26.9820 C   0  0  0  0  0  0  0  0  0  0  0  0
    2.5330    5.1210   26.9630 C   0  0  0  0  0  0  0  0  0  0  0  0
    1.9580    6.0720   26.4410 O   0  0  0  0  0  0  0  0  0  0  0  0
    0.2060    3.3950   25.9270 C   0  0  0  0  0  0  0  0  0  0  0  0
    1.1470    3.6120   24.9320 O   0  0  0  0  0  0  0  0  0  0  0  0
  8  9  1  0
  4  3  1  0
  4  5  2  0
  3  2  2  0
  7  5  1  0
 11 10  2  0
  5  6  1  0
 10  9  1  0
 10  1  1  0
  2  1  1  0
  2 12  1  0
  6 12  2  0
 12 13  1  0
M  END
>  <id>  (57) 
57

>  <inchikey>  (57) 
VFXXPGGIPBIYCC-UHFFFAOYSA-N

>  <alias>  (57) 
7gox-a

>  <smiles>  (57) 
CCC(=O)Nc1ccc(C)cc1O

>  <path>  (57) 
/opt/xchem-fragalysis-2/maxwin/BulkDock/TARGETS/D68EV3C/aligned_files/7gox-a/7gox-a.pdb

>  <distance_score>  (57) 
None

>  <energy_score>  (57) 
None

>  <compound>  (57) 
VFXXPGGIPBIYCC-UHFFFAOYSA-N

>  <compound_id>  (57) 
48

>  <target>  (57) 
D68EV3C

>  <tags>  (57) 
['BAD count', '[Other] upload_1 2025-02-11', '[Other] iter1_frags', 'hits', 'MEDIOCRE count', 'Main status', 'GOOD count']

>  <inspirations>  (57) 
None

>  <subsites>  (57) 
None

>  <reference>  (57) 


>  <observation_longname>  (57) 
7gox_A_201_v1

>  <ConformerSites alias>  (57) 
1a - 7gp9/A/201

>  <CanonSites alias>  (57) 
1 - 7gp9/A/201/1

>  <CrystalformSites alias>  (57) 
F2a - 7gox/A/201/1

>  <Quatassemblies alias>  (57) 
A1 - monomer

>  <Crystalforms alias>  (57) 
F2 - EVD68_Reference_20230131

>  <ConformerSites upload name>  (57) 
1a - 7gp9/A/201

>  <CanonSites upload name>  (57) 
1 - 7gp9/A/201/1

>  <CrystalformSites upload name>  (57) 
F2a - 7gox/A/201/1

>  <Quatassemblies upload name>  (57) 
A1 - monomer

>  <Crystalforms upload name>  (57) 
F2 - EVD68_Reference_20230131

>  <ConformerSites short tag>  (57) 
1a - 7gp9/A/201

>  <CanonSites short tag>  (57) 
1 - 7gp9/A/201/1

>  <CrystalformSites short tag>  (57) 
F2a - 7gox/A/201/1

>  <Quatassemblies short tag>  (57) 
A1 - monomer

>  <Crystalforms short tag>  (57) 
F2 - EVD68_Reference_20230131

>  <Centroid res>  (57) 
7gp9/A/163/A_v1

>  <Experiment code>  (57) 
7gox

>  <Pose>  (57) 
7gox-a

$$$$
7goy-b
     RDKit          3D

 14 14  0  0  0  0  0  0  0  0999 V2000
  -22.4600   -3.1550   29.0230 N   0  0  0  0  0  0  0  0  0  0  0  0
  -21.6430   -2.5230   29.8410 C   0  0  0  0  0  0  0  0  0  0  0  0
  -20.7990   -1.6310   29.1640 C   0  0  0  0  0  0  0  0  0  0  0  0
  -21.1350   -1.7540   27.8720 C   0  0  0  0  0  0  0  0  0  0  0  0
  -20.6590   -1.1240   26.6140 C   0  0  0  0  0  0  0  0  0  0  0  0
  -20.5250   -2.5570   31.9560 N   0  0  0  0  0  0  0  0  0  0  0  0
  -19.0640   -5.3900   34.6380 C   0  0  0  0  0  0  0  0  0  0  0  0
  -19.3500   -4.0070   34.9760 O   0  0  0  0  0  0  0  0  0  0  0  0
  -19.2450   -3.0880   34.0030 C   0  0  0  0  0  0  0  0  0  0  0  0
  -19.8490   -3.5880   32.7140 C   0  0  0  0  0  0  0  0  0  0  0  0
  -21.6560   -2.8200   31.2940 C   0  0  0  0  0  0  0  0  0  0  0  0
  -18.7470   -2.0030   34.1660 O   0  0  0  0  0  0  0  0  0  0  0  0
  -22.6530   -3.3020   31.8370 O   0  0  0  0  0  0  0  0  0  0  0  0
  -22.1290   -2.6580   27.7410 O   0  0  0  0  0  0  0  0  0  0  0  0
 14  1  1  0
 14  4  1  0
 12  9  2  0
  1  2  2  0
  6 10  1  0
  6 11  1  0
  4  5  1  0
  4  3  2  0
  9 10  1  0
  9  8  1  0
  2 11  1  0
  2  3  1  0
  7  8  1  0
 11 13  2  0
M  END
>  <id>  (58) 
58

>  <inchikey>  (58) 
FPAQMEYCJIMDCC-UHFFFAOYSA-N

>  <alias>  (58) 
7goy-b

>  <smiles>  (58) 
COC(=O)CNC(=O)c1cc(C)on1

>  <path>  (58) 
/opt/xchem-fragalysis-2/maxwin/BulkDock/TARGETS/D68EV3C/aligned_files/7goy-b/7goy-b.pdb

>  <distance_score>  (58) 
None

>  <energy_score>  (58) 
None

>  <compound>  (58) 
FPAQMEYCJIMDCC-UHFFFAOYSA-N

>  <compound_id>  (58) 
49

>  <target>  (58) 
D68EV3C

>  <tags>  (58) 
['BAD count', '[Other] upload_1 2025-02-11', 'hits', 'MEDIOCRE count', 'Main status', 'GOOD count']

>  <inspirations>  (58) 
None

>  <subsites>  (58) 
None

>  <reference>  (58) 


>  <observation_longname>  (58) 
7goy_A_202_v1

>  <ConformerSites alias>  (58) 
19a - 7goy/A/202

>  <CanonSites alias>  (58) 
19 - 7goy/A/202/1

>  <CrystalformSites alias>  (58) 
F2ap - 7goy/A/202/1

>  <Quatassemblies alias>  (58) 
A1 - monomer

>  <Crystalforms alias>  (58) 
F2 - EVD68_Reference_20230131

>  <ConformerSites upload name>  (58) 
19a - 7goy/A/202

>  <CanonSites upload name>  (58) 
19 - 7goy/A/202/1

>  <CrystalformSites upload name>  (58) 
F2ap - 7goy/A/202/1

>  <Quatassemblies upload name>  (58) 
A1 - monomer

>  <Crystalforms upload name>  (58) 
F2 - EVD68_Reference_20230131

>  <ConformerSites short tag>  (58) 
19a - 7goy/A/202

>  <CanonSites short tag>  (58) 
19 - 7goy/A/202/1

>  <CrystalformSites short tag>  (58) 
F2ap - 7goy/A/202/1

>  <Quatassemblies short tag>  (58) 
A1 - monomer

>  <Crystalforms short tag>  (58) 
F2 - EVD68_Reference_20230131

>  <Centroid res>  (58) 
7goy/A/123/A_v1

>  <Experiment code>  (58) 
7goy

>  <Pose>  (58) 
7goy-b

$$$$
7goy-a
     RDKit          3D

 14 14  0  0  0  0  0  0  0  0999 V2000
   -1.1070    0.0340   31.3590 N   0  0  0  0  0  0  0  0  0  0  0  0
   -1.8670   -0.9920   31.0400 C   0  0  0  0  0  0  0  0  0  0  0  0
   -1.7140   -1.3620   29.6890 C   0  0  0  0  0  0  0  0  0  0  0  0
   -0.8050   -0.5060   29.1970 C   0  0  0  0  0  0  0  0  0  0  0  0
   -0.1370   -0.3500   27.8790 C   0  0  0  0  0  0  0  0  0  0  0  0
   -3.0260   -0.8940   33.1310 N   0  0  0  0  0  0  0  0  0  0  0  0
   -7.2220   -0.9230   35.3990 C   0  0  0  0  0  0  0  0  0  0  0  0
   -5.7760   -0.9880   35.4310 O   0  0  0  0  0  0  0  0  0  0  0  0
   -5.1420   -0.6870   34.3080 C   0  0  0  0  0  0  0  0  0  0  0  0
   -3.8330   -1.4120   34.2150 C   0  0  0  0  0  0  0  0  0  0  0  0
   -2.7340   -1.6350   32.0570 C   0  0  0  0  0  0  0  0  0  0  0  0
   -5.5530    0.0630   33.5040 O   0  0  0  0  0  0  0  0  0  0  0  0
   -3.1480   -2.7910   31.9080 O   0  0  0  0  0  0  0  0  0  0  0  0
   -0.4170    0.3530   30.1590 O   0  0  0  0  0  0  0  0  0  0  0  0
 14  1  1  0
 14  4  1  0
 12  9  2  0
  1  2  2  0
  6 10  1  0
  6 11  1  0
  4  5  1  0
  4  3  2  0
  9 10  1  0
  9  8  1  0
  2 11  1  0
  2  3  1  0
  7  8  1  0
 11 13  2  0
M  END
>  <id>  (59) 
59

>  <inchikey>  (59) 
FPAQMEYCJIMDCC-UHFFFAOYSA-N

>  <alias>  (59) 
7goy-a

>  <smiles>  (59) 
COC(=O)CNC(=O)c1cc(C)on1

>  <path>  (59) 
/opt/xchem-fragalysis-2/maxwin/BulkDock/TARGETS/D68EV3C/aligned_files/7goy-a/7goy-a.pdb

>  <distance_score>  (59) 
None

>  <energy_score>  (59) 
None

>  <compound>  (59) 
FPAQMEYCJIMDCC-UHFFFAOYSA-N

>  <compound_id>  (59) 
49

>  <target>  (59) 
D68EV3C

>  <tags>  (59) 
['BAD count', '[Other] upload_1 2025-02-11', '[Other] iter1_frags', 'hits', 'MEDIOCRE count', 'Main status', 'GOOD count']

>  <inspirations>  (59) 
None

>  <subsites>  (59) 
None

>  <reference>  (59) 


>  <observation_longname>  (59) 
7goy_A_201_v1

>  <ConformerSites alias>  (59) 
1a - 7gp9/A/201

>  <CanonSites alias>  (59) 
1 - 7gp9/A/201/1

>  <CrystalformSites alias>  (59) 
F2b - 7gp9/A/201/1

>  <Quatassemblies alias>  (59) 
A1 - monomer

>  <Crystalforms alias>  (59) 
F2 - EVD68_Reference_20230131

>  <ConformerSites upload name>  (59) 
1a - 7gp9/A/201

>  <CanonSites upload name>  (59) 
1 - 7gp9/A/201/1

>  <CrystalformSites upload name>  (59) 
F2b - 7gp9/A/201/1

>  <Quatassemblies upload name>  (59) 
A1 - monomer

>  <Crystalforms upload name>  (59) 
F2 - EVD68_Reference_20230131

>  <ConformerSites short tag>  (59) 
1a - 7gp9/A/201

>  <CanonSites short tag>  (59) 
1 - 7gp9/A/201/1

>  <CrystalformSites short tag>  (59) 
F2b - 7gp9/A/201/1

>  <Quatassemblies short tag>  (59) 
A1 - monomer

>  <Crystalforms short tag>  (59) 
F2 - EVD68_Reference_20230131

>  <Centroid res>  (59) 
7gp9/A/163/A_v1

>  <Experiment code>  (59) 
7goy

>  <Pose>  (59) 
7goy-a

$$$$
7goz-a
     RDKit          3D

 15 16  0  0  0  0  0  0  0  0999 V2000
   13.0890   -1.1860   16.5640 N   0  0  0  0  0  0  0  0  0  0  0  0
   11.5930   -1.2840   14.6910 C   0  0  0  0  0  0  0  0  0  0  0  0
   12.4300   -0.6040   15.5510 C   0  0  0  0  0  0  0  0  0  0  0  0
   14.4350   -4.4580   19.6310 C   0  0  2  0  0  0  0  0  0  0  0  0
   15.0810   -3.2110   20.1930 C   0  0  0  0  0  0  0  0  0  0  0  0
   14.5600   -3.9230   22.3670 C   0  0  0  0  0  0  0  0  0  0  0  0
   13.4810   -2.9880   17.9300 N   0  0  0  0  0  0  0  0  0  0  0  0
   13.8750   -4.2520   18.2260 C   0  0  0  0  0  0  0  0  0  0  0  0
   13.8270   -5.1980   17.4460 O   0  0  0  0  0  0  0  0  0  0  0  0
   12.9050   -2.5010   16.7480 C   0  0  0  0  0  0  0  0  0  0  0  0
   12.0910   -3.2760   15.9110 C   0  0  0  0  0  0  0  0  0  0  0  0
   11.4320   -2.6350   14.8760 C   0  0  0  0  0  0  0  0  0  0  0  0
   13.8810   -5.1450   21.8250 C   0  0  0  0  0  0  0  0  0  0  0  0
   15.6030   -3.4700   21.4990 O   0  0  0  0  0  0  0  0  0  0  0  0
   13.3790   -4.8850   20.5030 O   0  0  0  0  0  0  0  0  0  0  0  0
  3  2  1  0
  3  1  2  0
  2 12  2  0
  1 10  1  0
 12 11  1  0
 10 11  2  0
 10  7  1  0
  7  8  1  0
  8  9  2  0
  4  8  1  6
  5  4  1  0
  5 14  1  0
  4 15  1  0
 14  6  1  0
 15 13  1  0
  6 13  1  0
M  END
>  <id>  (60) 
60

>  <inchikey>  (60) 
MYQOETKNJQIOKN-MRVPVSSYSA-N

>  <alias>  (60) 
7goz-a

>  <smiles>  (60) 
O=C(Nc1ccccn1)[C@H]1COCCO1

>  <path>  (60) 
/opt/xchem-fragalysis-2/maxwin/BulkDock/TARGETS/D68EV3C/aligned_files/7goz-a/7goz-a.pdb

>  <distance_score>  (60) 
None

>  <energy_score>  (60) 
None

>  <compound>  (60) 
MYQOETKNJQIOKN-UHFFFAOYSA-N

>  <compound_id>  (60) 
50

>  <target>  (60) 
D68EV3C

>  <tags>  (60) 
['BAD count', '[Other] upload_1 2025-02-11', 'hits', 'MEDIOCRE count', 'Main status', 'GOOD count']

>  <inspirations>  (60) 
None

>  <subsites>  (60) 
None

>  <reference>  (60) 


>  <observation_longname>  (60) 
7goz_B_201_v1

>  <ConformerSites alias>  (60) 
2a - 7gon/B/201

>  <CanonSites alias>  (60) 
2 - 7gon/B/201/1

>  <CrystalformSites alias>  (60) 
F2j - 7gqb/B/201/1

>  <Quatassemblies alias>  (60) 
A1 - monomer

>  <Crystalforms alias>  (60) 
F2 - EVD68_Reference_20230131

>  <ConformerSites upload name>  (60) 
2a - 7gon/B/201

>  <CanonSites upload name>  (60) 
2 - 7gon/B/201/1

>  <CrystalformSites upload name>  (60) 
F2j - 7gqb/B/201/1

>  <Quatassemblies upload name>  (60) 
A1 - monomer

>  <Crystalforms upload name>  (60) 
F2 - EVD68_Reference_20230131

>  <ConformerSites short tag>  (60) 
2a - 7gon/B/201

>  <CanonSites short tag>  (60) 
2 - 7gon/B/201/1

>  <CrystalformSites short tag>  (60) 
F2j - 7gqb/B/201/1

>  <Quatassemblies short tag>  (60) 
A1 - monomer

>  <Crystalforms short tag>  (60) 
F2 - EVD68_Reference_20230131

>  <Centroid res>  (60) 
7gon/B/47/B_v1

>  <Experiment code>  (60) 
7goz

>  <Pose>  (60) 
7goz-a

$$$$
7gp0-a
     RDKit          3D

 14 14  0  0  0  0  0  0  0  0999 V2000
   16.1180   -4.4190   17.4710 N   0  0  0  0  0  0  0  0  0  0  0  0
   15.7130    0.7780   17.9410 C   0  0  0  0  0  0  0  0  0  0  0  0
   15.3880    0.2910   16.6860 C   0  0  0  0  0  0  0  0  0  0  0  0
   15.0870   -1.0550   16.5200 C   0  0  0  0  0  0  0  0  0  0  0  0
   15.2040   -1.0450   14.1620 C   0  0  0  0  0  0  0  0  0  0  0  0
   14.7200   -3.6300   17.5210 S   0  0  0  0  0  0  0  0  0  0  0  0
   14.0610   -3.8550   16.2700 O   0  0  0  0  0  0  0  0  0  0  0  0
   14.0390   -4.0220   18.7230 O   0  0  0  0  0  0  0  0  0  0  0  0
   15.0950   -1.9010   17.6400 C   0  0  0  0  0  0  0  0  0  0  0  0
   15.4210   -1.4020   18.8940 C   0  0  0  0  0  0  0  0  0  0  0  0
   15.7340   -0.0600   19.0340 C   0  0  0  0  0  0  0  0  0  0  0  0
   14.8340   -1.6500   15.3080 O   0  0  0  0  0  0  0  0  0  0  0  0
   14.3230   -0.0300   14.0670 F   0  0  0  0  0  0  0  0  0  0  0  0
   16.4610   -0.5760   14.3480 F   0  0  0  0  0  0  0  0  0  0  0  0
  7  6  2  0
 10 11  1  0
 10  9  2  0
  8  6  2  0
  6  9  1  0
  6  1  1  0
 11  2  2  0
  9  4  1  0
  2  3  1  0
  4  3  2  0
  4 12  1  0
  5 13  1  0
  5 12  1  0
  5 14  1  0
M  END
>  <id>  (61) 
61

>  <inchikey>  (61) 
XDODAVQVIOWLPT-UHFFFAOYSA-N

>  <alias>  (61) 
7gp0-a

>  <smiles>  (61) 
NS(=O)(=O)c1ccccc1OC(F)F

>  <path>  (61) 
/opt/xchem-fragalysis-2/maxwin/BulkDock/TARGETS/D68EV3C/aligned_files/7gp0-a/7gp0-a_hippo.pdb

>  <distance_score>  (61) 
None

>  <energy_score>  (61) 
None

>  <compound>  (61) 
XDODAVQVIOWLPT-UHFFFAOYSA-N

>  <compound_id>  (61) 
51

>  <target>  (61) 
D68EV3C

>  <tags>  (61) 
['BAD count', '[Other] upload_1 2025-02-11', 'hits', 'MEDIOCRE count', 'Main status', 'GOOD count']

>  <inspirations>  (61) 
None

>  <subsites>  (61) 
None

>  <reference>  (61) 


>  <observation_longname>  (61) 
7gp0_B_201_v1

>  <ConformerSites alias>  (61) 
2a - 7gon/B/201

>  <CanonSites alias>  (61) 
2 - 7gon/B/201/1

>  <CrystalformSites alias>  (61) 
F2j - 7gqb/B/201/1

>  <Quatassemblies alias>  (61) 
A1 - monomer

>  <Crystalforms alias>  (61) 
F2 - EVD68_Reference_20230131

>  <ConformerSites upload name>  (61) 
2a - 7gon/B/201

>  <CanonSites upload name>  (61) 
2 - 7gon/B/201/1

>  <CrystalformSites upload name>  (61) 
F2j - 7gqb/B/201/1

>  <Quatassemblies upload name>  (61) 
A1 - monomer

>  <Crystalforms upload name>  (61) 
F2 - EVD68_Reference_20230131

>  <ConformerSites short tag>  (61) 
2a - 7gon/B/201

>  <CanonSites short tag>  (61) 
2 - 7gon/B/201/1

>  <CrystalformSites short tag>  (61) 
F2j - 7gqb/B/201/1

>  <Quatassemblies short tag>  (61) 
A1 - monomer

>  <Crystalforms short tag>  (61) 
F2 - EVD68_Reference_20230131

>  <Centroid res>  (61) 
7gon/B/47/B_v1

>  <Experiment code>  (61) 
7gp0

>  <Pose>  (61) 
7gp0-a

$$$$
7gp0-b
     RDKit          3D

 14 14  0  0  0  0  0  0  0  0999 V2000
   -9.9050  -24.9720   32.4590 N   0  0  0  0  0  0  0  0  0  0  0  0
  -11.3880  -24.7210   27.4510 C   0  0  0  0  0  0  0  0  0  0  0  0
  -11.5570  -23.7620   28.4360 C   0  0  0  0  0  0  0  0  0  0  0  0
  -11.4490  -24.1170   29.7690 C   0  0  0  0  0  0  0  0  0  0  0  0
  -12.7170  -22.7920   31.1990 C   0  0  0  0  0  0  0  0  0  0  0  0
  -11.0000  -25.9300   31.7840 S   0  0  0  0  0  0  0  0  0  0  0  0
  -10.4660  -27.2660   31.8260 O   0  0  0  0  0  0  0  0  0  0  0  0
  -12.2590  -25.6450   32.4140 O   0  0  0  0  0  0  0  0  0  0  0  0
  -11.1800  -25.4520   30.1010 C   0  0  0  0  0  0  0  0  0  0  0  0
  -11.0270  -26.4120   29.1130 C   0  0  0  0  0  0  0  0  0  0  0  0
  -11.1230  -26.0340   27.7870 C   0  0  0  0  0  0  0  0  0  0  0  0
  -11.5460  -23.2420   30.8200 O   0  0  0  0  0  0  0  0  0  0  0  0
  -12.5920  -21.6880   30.5470 F   0  0  0  0  0  0  0  0  0  0  0  0
  -12.6340  -22.5070   32.4840 F   0  0  0  0  0  0  0  0  0  0  0  0
  7  6  2  0
 10 11  1  0
 10  9  2  0
  8  6  2  0
  6  9  1  0
  6  1  1  0
 11  2  2  0
  9  4  1  0
  2  3  1  0
  4  3  2  0
  4 12  1  0
  5 13  1  0
  5 12  1  0
  5 14  1  0
M  END
>  <id>  (62) 
62

>  <inchikey>  (62) 
XDODAVQVIOWLPT-UHFFFAOYSA-N

>  <alias>  (62) 
7gp0-b

>  <smiles>  (62) 
NS(=O)(=O)c1ccccc1OC(F)F

>  <path>  (62) 
/opt/xchem-fragalysis-2/maxwin/BulkDock/TARGETS/D68EV3C/aligned_files/7gp0-b/7gp0-b.pdb

>  <distance_score>  (62) 
None

>  <energy_score>  (62) 
None

>  <compound>  (62) 
XDODAVQVIOWLPT-UHFFFAOYSA-N

>  <compound_id>  (62) 
51

>  <target>  (62) 
D68EV3C

>  <tags>  (62) 
['BAD count', '[Other] upload_1 2025-02-11', 'hits', 'MEDIOCRE count', 'Main status', 'GOOD count']

>  <inspirations>  (62) 
None

>  <subsites>  (62) 
None

>  <reference>  (62) 


>  <observation_longname>  (62) 
7gp0_A_301_v1

>  <ConformerSites alias>  (62) 
5g - 7gp0/A/301

>  <CanonSites alias>  (62) 
5 - B1120/A/308/1

>  <CrystalformSites alias>  (62) 
F2r - 7goj/A/201/1

>  <Quatassemblies alias>  (62) 
A1 - monomer

>  <Crystalforms alias>  (62) 
F2 - EVD68_Reference_20230131

>  <ConformerSites upload name>  (62) 
5g - 7gp0/A/301

>  <CanonSites upload name>  (62) 
5 - D68EV3CPROB-x1120/A/308/1

>  <CrystalformSites upload name>  (62) 
F2r - 7goj/A/201/1

>  <Quatassemblies upload name>  (62) 
A1 - monomer

>  <Crystalforms upload name>  (62) 
F2 - EVD68_Reference_20230131

>  <ConformerSites short tag>  (62) 
5g - 7gp0/A/301

>  <CanonSites short tag>  (62) 
5 - B1120/A/308/1

>  <CrystalformSites short tag>  (62) 
F2r - 7goj/A/201/1

>  <Quatassemblies short tag>  (62) 
A1 - monomer

>  <Crystalforms short tag>  (62) 
F2 - EVD68_Reference_20230131

>  <Centroid res>  (62) 
D68EV3CPROB-x1120/B/115/A_v1

>  <Experiment code>  (62) 
7gp0

>  <Pose>  (62) 
7gp0-b

$$$$
7gq5-a
     RDKit          3D

  7  7  0  0  0  0  0  0  0  0999 V2000
   12.8540   -1.2350   16.4000 N   0  0  0  0  0  0  0  0  0  0  0  0
   13.3770   -4.5760   17.3000 N   0  0  0  0  0  0  0  0  0  0  0  0
   12.9400   -3.6690   16.7360 C   0  0  0  0  0  0  0  0  0  0  0  0
   12.4460   -2.5010   16.0580 C   0  0  0  0  0  0  0  0  0  0  0  0
   11.6020   -2.4270   14.9840 C   0  0  0  0  0  0  0  0  0  0  0  0
   11.5090   -1.1080   14.6540 N   0  0  0  0  0  0  0  0  0  0  0  0
   12.2700   -0.4310   15.5220 C   0  0  0  0  0  0  0  0  0  0  0  0
  2  3  3  0
  3  4  1  0
  5  4  2  0
  5  6  1  0
  4  1  1  0
  6  7  2  0
  1  7  1  0
M  END
>  <id>  (63) 
63

>  <inchikey>  (63) 
NWVGXXPWOYZODV-UHFFFAOYSA-N

>  <alias>  (63) 
7gq5-a

>  <smiles>  (63) 
N#Cc1cnc[nH]1

>  <path>  (63) 
/opt/xchem-fragalysis-2/maxwin/BulkDock/TARGETS/D68EV3C/aligned_files/7gq5-a/7gq5-a_hippo.pdb

>  <distance_score>  (63) 
None

>  <energy_score>  (63) 
None

>  <compound>  (63) 
NWVGXXPWOYZODV-UHFFFAOYSA-N

>  <compound_id>  (63) 
52

>  <target>  (63) 
D68EV3C

>  <tags>  (63) 
['BAD count', '[Other] upload_1 2025-02-11', 'hits', 'MEDIOCRE count', 'Main status', 'GOOD count']

>  <inspirations>  (63) 
None

>  <subsites>  (63) 
None

>  <reference>  (63) 


>  <observation_longname>  (63) 
7gq5_B_201_v1

>  <ConformerSites alias>  (63) 
2a - 7gon/B/201

>  <CanonSites alias>  (63) 
2 - 7gon/B/201/1

>  <CrystalformSites alias>  (63) 
F2j - 7gqb/B/201/1

>  <Quatassemblies alias>  (63) 
A1 - monomer

>  <Crystalforms alias>  (63) 
F2 - EVD68_Reference_20230131

>  <ConformerSites upload name>  (63) 
2a - 7gon/B/201

>  <CanonSites upload name>  (63) 
2 - 7gon/B/201/1

>  <CrystalformSites upload name>  (63) 
F2j - 7gqb/B/201/1

>  <Quatassemblies upload name>  (63) 
A1 - monomer

>  <Crystalforms upload name>  (63) 
F2 - EVD68_Reference_20230131

>  <ConformerSites short tag>  (63) 
2a - 7gon/B/201

>  <CanonSites short tag>  (63) 
2 - 7gon/B/201/1

>  <CrystalformSites short tag>  (63) 
F2j - 7gqb/B/201/1

>  <Quatassemblies short tag>  (63) 
A1 - monomer

>  <Crystalforms short tag>  (63) 
F2 - EVD68_Reference_20230131

>  <Centroid res>  (63) 
7gon/B/47/B_v1

>  <Experiment code>  (63) 
7gq5

>  <Pose>  (63) 
7gq5-a

$$$$
7gq5-b
     RDKit          3D

  7  7  0  0  0  0  0  0  0  0999 V2000
  -10.9970  -26.3280   27.6220 N   0  0  0  0  0  0  0  0  0  0  0  0
   -9.5990  -25.5880   30.7630 N   0  0  0  0  0  0  0  0  0  0  0  0
  -10.1560  -25.4930   29.7730 C   0  0  0  0  0  0  0  0  0  0  0  0
  -10.8440  -25.3120   28.5290 C   0  0  0  0  0  0  0  0  0  0  0  0
  -11.4460  -24.1830   28.0480 C   0  0  0  0  0  0  0  0  0  0  0  0
  -11.9780  -24.5160   26.8390 N   0  0  0  0  0  0  0  0  0  0  0  0
  -11.6870  -25.8020   26.6240 C   0  0  0  0  0  0  0  0  0  0  0  0
  2  3  3  0
  3  4  1  0
  5  4  2  0
  5  6  1  0
  4  1  1  0
  6  7  2  0
  1  7  1  0
M  END
>  <id>  (64) 
64

>  <inchikey>  (64) 
NWVGXXPWOYZODV-UHFFFAOYSA-N

>  <alias>  (64) 
7gq5-b

>  <smiles>  (64) 
N#Cc1cnc[nH]1

>  <path>  (64) 
/opt/xchem-fragalysis-2/maxwin/BulkDock/TARGETS/D68EV3C/aligned_files/7gq5-b/7gq5-b.pdb

>  <distance_score>  (64) 
None

>  <energy_score>  (64) 
None

>  <compound>  (64) 
NWVGXXPWOYZODV-UHFFFAOYSA-N

>  <compound_id>  (64) 
52

>  <target>  (64) 
D68EV3C

>  <tags>  (64) 
['BAD count', '[Other] upload_1 2025-02-11', 'hits', 'MEDIOCRE count', 'Main status', 'GOOD count']

>  <inspirations>  (64) 
None

>  <subsites>  (64) 
None

>  <reference>  (64) 


>  <observation_longname>  (64) 
7gq5_A_201_v1

>  <ConformerSites alias>  (64) 
10b - 7gq5/A/201

>  <CanonSites alias>  (64) 
10 - 7gq5/A/201/1

>  <CrystalformSites alias>  (64) 
F2af - 7gq5/A/201/1

>  <Quatassemblies alias>  (64) 
A1 - monomer

>  <Crystalforms alias>  (64) 
F2 - EVD68_Reference_20230131

>  <ConformerSites upload name>  (64) 
10b - 7gq5/A/201

>  <CanonSites upload name>  (64) 
10 - 7gq5/A/201/1

>  <CrystalformSites upload name>  (64) 
F2af - 7gq5/A/201/1

>  <Quatassemblies upload name>  (64) 
A1 - monomer

>  <Crystalforms upload name>  (64) 
F2 - EVD68_Reference_20230131

>  <ConformerSites short tag>  (64) 
10b - 7gq5/A/201

>  <CanonSites short tag>  (64) 
10 - 7gq5/A/201/1

>  <CrystalformSites short tag>  (64) 
F2af - 7gq5/A/201/1

>  <Quatassemblies short tag>  (64) 
A1 - monomer

>  <Crystalforms short tag>  (64) 
F2 - EVD68_Reference_20230131

>  <Centroid res>  (64) 
7gq5/B/115/A_v1

>  <Experiment code>  (64) 
7gq5

>  <Pose>  (64) 
7gq5-b

$$$$
7gpn-a
     RDKit          3D

 10 11  0  0  0  0  0  0  0  0999 V2000
   -7.6420   -0.9890    7.9350 N   0  0  0  0  0  0  0  0  0  0  0  0
   -5.7510   -1.3920    6.8900 N   0  0  0  0  0  0  0  0  0  0  0  0
   -4.1040    0.2960    6.4430 C   0  0  0  0  0  0  0  0  0  0  0  0
   -4.3570   -1.1890    6.4670 C   0  0  0  0  0  0  0  0  0  0  0  0
   -7.7560   -2.1900    7.2390 N   0  0  0  0  0  0  0  0  0  0  0  0
   -6.2840   -3.5630    5.7750 C   0  0  0  0  0  0  0  0  0  0  0  0
   -6.6180   -2.3990    6.6300 C   0  0  0  0  0  0  0  0  0  0  0  0
   -6.4380   -0.5310    7.7010 C   0  0  0  0  0  0  0  0  0  0  0  0
   -5.7820    0.7320    8.1380 C   0  0  0  0  0  0  0  0  0  0  0  0
   -4.3880    0.9160    7.7390 N   0  0  0  0  0  0  0  0  0  0  0  0
  6  7  1  0
  7  5  2  0
  7  2  1  0
  5  1  1  0
  2  4  1  0
  2  8  1  0
  4  3  1  0
  1  8  2  0
  8  9  1  0
  3 10  1  0
  9 10  1  0
M  END
>  <id>  (65) 
65

>  <inchikey>  (65) 
WRGHYZWPWNOJEF-UHFFFAOYSA-N

>  <alias>  (65) 
7gpn-a

>  <smiles>  (65) 
Cc1nnc2n1CCNC2

>  <path>  (65) 
/opt/xchem-fragalysis-2/maxwin/BulkDock/TARGETS/D68EV3C/aligned_files/7gpn-a/7gpn-a.pdb

>  <distance_score>  (65) 
None

>  <energy_score>  (65) 
None

>  <compound>  (65) 
WRGHYZWPWNOJEF-UHFFFAOYSA-N

>  <compound_id>  (65) 
53

>  <target>  (65) 
D68EV3C

>  <tags>  (65) 
['BAD count', '[Other] upload_1 2025-02-11', 'hits', 'MEDIOCRE count', 'Main status', 'GOOD count']

>  <inspirations>  (65) 
None

>  <subsites>  (65) 
None

>  <reference>  (65) 


>  <observation_longname>  (65) 
7gpn_A_201_v1

>  <ConformerSites alias>  (65) 
3a - 7gpw/B/202

>  <CanonSites alias>  (65) 
3 - 7gpw/B/202/1

>  <CrystalformSites alias>  (65) 
F2m - 7goi/A/201/1

>  <Quatassemblies alias>  (65) 
A1 - monomer

>  <Crystalforms alias>  (65) 
F2 - EVD68_Reference_20230131

>  <ConformerSites upload name>  (65) 
3a - 7gpw/B/202

>  <CanonSites upload name>  (65) 
3 - 7gpw/B/202/1

>  <CrystalformSites upload name>  (65) 
F2m - 7goi/A/201/1

>  <Quatassemblies upload name>  (65) 
A1 - monomer

>  <Crystalforms upload name>  (65) 
F2 - EVD68_Reference_20230131

>  <ConformerSites short tag>  (65) 
3a - 7gpw/B/202

>  <CanonSites short tag>  (65) 
3 - 7gpw/B/202/1

>  <CrystalformSites short tag>  (65) 
F2m - 7goi/A/201/1

>  <Quatassemblies short tag>  (65) 
A1 - monomer

>  <Crystalforms short tag>  (65) 
F2 - EVD68_Reference_20230131

>  <Centroid res>  (65) 
7gpw/B/74/B_v1

>  <Experiment code>  (65) 
7gpn

>  <Pose>  (65) 
7gpn-a

$$$$
7gnv-a
     RDKit          3D

  9  9  0  0  0  0  0  0  0  0999 V2000
   13.1070   -3.3800   16.5100 S   0  0  0  0  0  0  0  0  0  0  0  0
   13.5480   -1.7180   16.3600 C   0  0  0  0  0  0  0  0  0  0  0  0
   12.7130   -1.0480   15.5010 C   0  0  0  0  0  0  0  0  0  0  0  0
   11.7180   -1.9100   14.9830 C   0  0  0  0  0  0  0  0  0  0  0  0
   11.8130   -3.1750   15.4350 C   0  0  0  0  0  0  0  0  0  0  0  0
   12.8340    0.4050   15.1160 C   0  0  0  0  0  0  0  0  0  0  0  0
   14.7110   -1.2140   17.1110 C   0  0  0  0  0  0  0  0  0  0  0  0
   14.6550   -0.1640   17.7450 O   0  0  0  0  0  0  0  0  0  0  0  0
   15.7870   -1.9760   17.0140 O   0  0  0  0  0  0  0  0  0  0  0  0
  6  3  1  0
  4  3  1  0
  4  5  2  0
  3  2  2  0
  5  1  1  0
  8  7  2  0
  2  7  1  0
  2  1  1  0
  7  9  1  0
M  END
>  <id>  (66) 
66

>  <inchikey>  (66) 
IFLKEBSJTZGCJG-UHFFFAOYSA-N

>  <alias>  (66) 
7gnv-a

>  <smiles>  (66) 
Cc1ccsc1C(=O)O

>  <path>  (66) 
/opt/xchem-fragalysis-2/maxwin/BulkDock/TARGETS/D68EV3C/aligned_files/7gnv-a/7gnv-a.pdb

>  <distance_score>  (66) 
None

>  <energy_score>  (66) 
None

>  <compound>  (66) 
IFLKEBSJTZGCJG-UHFFFAOYSA-N

>  <compound_id>  (66) 
54

>  <target>  (66) 
D68EV3C

>  <tags>  (66) 
['BAD count', '[Other] upload_1 2025-02-11', 'hits', 'MEDIOCRE count', 'Main status', 'GOOD count']

>  <inspirations>  (66) 
None

>  <subsites>  (66) 
None

>  <reference>  (66) 


>  <observation_longname>  (66) 
7gnv_B_201_v1

>  <ConformerSites alias>  (66) 
2a - 7gon/B/201

>  <CanonSites alias>  (66) 
2 - 7gon/B/201/1

>  <CrystalformSites alias>  (66) 
F2j - 7gqb/B/201/1

>  <Quatassemblies alias>  (66) 
A1 - monomer

>  <Crystalforms alias>  (66) 
F2 - EVD68_Reference_20230131

>  <ConformerSites upload name>  (66) 
2a - 7gon/B/201

>  <CanonSites upload name>  (66) 
2 - 7gon/B/201/1

>  <CrystalformSites upload name>  (66) 
F2j - 7gqb/B/201/1

>  <Quatassemblies upload name>  (66) 
A1 - monomer

>  <Crystalforms upload name>  (66) 
F2 - EVD68_Reference_20230131

>  <ConformerSites short tag>  (66) 
2a - 7gon/B/201

>  <CanonSites short tag>  (66) 
2 - 7gon/B/201/1

>  <CrystalformSites short tag>  (66) 
F2j - 7gqb/B/201/1

>  <Quatassemblies short tag>  (66) 
A1 - monomer

>  <Crystalforms short tag>  (66) 
F2 - EVD68_Reference_20230131

>  <Centroid res>  (66) 
7gon/B/47/B_v1

>  <Experiment code>  (66) 
7gnv

>  <Pose>  (66) 
7gnv-a

$$$$
7gnv-b
     RDKit          3D

  9  9  0  0  0  0  0  0  0  0999 V2000
    4.6020  -19.1800    9.5310 S   0  0  0  0  0  0  0  0  0  0  0  0
    3.4570  -17.9190    9.2440 C   0  0  0  0  0  0  0  0  0  0  0  0
    2.2690  -18.1710    9.8840 C   0  0  0  0  0  0  0  0  0  0  0  0
    2.3130  -19.4060   10.5690 C   0  0  0  0  0  0  0  0  0  0  0  0
    3.4940  -20.0300   10.4750 C   0  0  0  0  0  0  0  0  0  0  0  0
    1.0770  -17.2580    9.8990 C   0  0  0  0  0  0  0  0  0  0  0  0
    3.8180  -16.7820    8.3750 C   0  0  0  0  0  0  0  0  0  0  0  0
    5.1000  -16.6380    8.1480 O   0  0  0  0  0  0  0  0  0  0  0  0
    2.9640  -16.0300    7.9190 O   0  0  0  0  0  0  0  0  0  0  0  0
  6  3  1  0
  4  3  1  0
  4  5  2  0
  3  2  2  0
  5  1  1  0
  8  7  2  0
  2  7  1  0
  2  1  1  0
  7  9  1  0
M  END
>  <id>  (67) 
67

>  <inchikey>  (67) 
IFLKEBSJTZGCJG-UHFFFAOYSA-N

>  <alias>  (67) 
7gnv-b

>  <smiles>  (67) 
Cc1ccsc1C(=O)O

>  <path>  (67) 
/opt/xchem-fragalysis-2/maxwin/BulkDock/TARGETS/D68EV3C/aligned_files/7gnv-b/7gnv-b.pdb

>  <distance_score>  (67) 
None

>  <energy_score>  (67) 
None

>  <compound>  (67) 
IFLKEBSJTZGCJG-UHFFFAOYSA-N

>  <compound_id>  (67) 
54

>  <target>  (67) 
D68EV3C

>  <tags>  (67) 
['BAD count', '[Other] upload_1 2025-02-11', 'hits', 'MEDIOCRE count', 'Main status', 'GOOD count']

>  <inspirations>  (67) 
None

>  <subsites>  (67) 
None

>  <reference>  (67) 


>  <observation_longname>  (67) 
7gnv_B_202_v1

>  <ConformerSites alias>  (67) 
9a - 7gq1/B/202

>  <CanonSites alias>  (67) 
9 - 7gq1/B/202/1

>  <CrystalformSites alias>  (67) 
F2ae - 7gq1/B/202/1

>  <Quatassemblies alias>  (67) 
A1 - monomer

>  <Crystalforms alias>  (67) 
F2 - EVD68_Reference_20230131

>  <ConformerSites upload name>  (67) 
9a - 7gq1/B/202

>  <CanonSites upload name>  (67) 
9 - 7gq1/B/202/1

>  <CrystalformSites upload name>  (67) 
F2ae - 7gq1/B/202/1

>  <Quatassemblies upload name>  (67) 
A1 - monomer

>  <Crystalforms upload name>  (67) 
F2 - EVD68_Reference_20230131

>  <ConformerSites short tag>  (67) 
9a - 7gq1/B/202

>  <CanonSites short tag>  (67) 
9 - 7gq1/B/202/1

>  <CrystalformSites short tag>  (67) 
F2ae - 7gq1/B/202/1

>  <Quatassemblies short tag>  (67) 
A1 - monomer

>  <Crystalforms short tag>  (67) 
F2 - EVD68_Reference_20230131

>  <Centroid res>  (67) 
7gq1/B/14/B_v1

>  <Experiment code>  (67) 
7gnv

>  <Pose>  (67) 
7gnv-b

$$$$
7goa-b
     RDKit          3D

 13 14  0  0  0  0  0  0  0  0999 V2000
   -7.4970  -37.3470   24.1520 N   0  0  0  0  0  0  0  0  0  0  0  0
   -6.8170  -37.5110   23.0710 C   0  0  0  0  0  0  0  0  0  0  0  0
   -8.6250  -35.9560   22.6190 C   0  0  0  0  0  0  0  0  0  0  0  0
   -9.6000  -35.0420   22.2470 C   0  0  0  0  0  0  0  0  0  0  0  0
  -12.6530  -34.0950   21.8770 O   0  0  0  0  0  0  0  0  0  0  0  0
  -11.7530  -33.4400   22.7750 S   0  0  0  0  0  0  0  0  0  0  0  0
  -12.2800  -32.9090   23.9970 O   0  0  0  0  0  0  0  0  0  0  0  0
  -11.0790  -32.2310   21.9730 N   0  0  0  0  0  0  0  0  0  0  0  0
  -10.5000  -34.6090   23.2110 C   0  0  0  0  0  0  0  0  0  0  0  0
   -7.3420  -36.6380   21.6680 S   0  0  0  0  0  0  0  0  0  0  0  0
   -8.5500  -36.4550   23.9240 C   0  0  0  0  0  0  0  0  0  0  0  0
   -9.4880  -36.0300   24.8610 C   0  0  0  0  0  0  0  0  0  0  0  0
  -10.4460  -35.0920   24.5130 C   0  0  0  0  0  0  0  0  0  0  0  0
  2  1  2  0
  2 10  1  0
  1 11  1  0
 10  3  1  0
 11  3  2  0
 11 12  1  0
  3  4  1  0
 12 13  2  0
  8  6  1  0
  4  9  2  0
 13  9  1  0
  9  6  1  0
  6  7  2  0
  6  5  2  0
M  END
>  <id>  (68) 
68

>  <inchikey>  (68) 
KRRLILAOGRCMFH-UHFFFAOYSA-N

>  <alias>  (68) 
7goa-b

>  <smiles>  (68) 
NS(=O)(=O)c1ccc2ncsc2c1

>  <path>  (68) 
/opt/xchem-fragalysis-2/maxwin/BulkDock/TARGETS/D68EV3C/aligned_files/7goa-b/7goa-b.pdb

>  <distance_score>  (68) 
None

>  <energy_score>  (68) 
None

>  <compound>  (68) 
KRRLILAOGRCMFH-UHFFFAOYSA-N

>  <compound_id>  (68) 
55

>  <target>  (68) 
D68EV3C

>  <tags>  (68) 
['BAD count', '[Other] upload_1 2025-02-11', 'hits', 'MEDIOCRE count', 'Main status', 'GOOD count']

>  <inspirations>  (68) 
None

>  <subsites>  (68) 
None

>  <reference>  (68) 


>  <observation_longname>  (68) 
7goa_A_201_v1

>  <ConformerSites alias>  (68) 
8a - 7goa/A/201

>  <CanonSites alias>  (68) 
8 - 7goa/A/201/1

>  <CrystalformSites alias>  (68) 
F2ad - 7gpy/B/201/1

>  <Quatassemblies alias>  (68) 
A1 - monomer

>  <Crystalforms alias>  (68) 
F2 - EVD68_Reference_20230131

>  <ConformerSites upload name>  (68) 
8a - 7goa/A/201

>  <CanonSites upload name>  (68) 
8 - 7goa/A/201/1

>  <CrystalformSites upload name>  (68) 
F2ad - 7gpy/B/201/1

>  <Quatassemblies upload name>  (68) 
A1 - monomer

>  <Crystalforms upload name>  (68) 
F2 - EVD68_Reference_20230131

>  <ConformerSites short tag>  (68) 
8a - 7goa/A/201

>  <CanonSites short tag>  (68) 
8 - 7goa/A/201/1

>  <CrystalformSites short tag>  (68) 
F2ad - 7gpy/B/201/1

>  <Quatassemblies short tag>  (68) 
A1 - monomer

>  <Crystalforms short tag>  (68) 
F2 - EVD68_Reference_20230131

>  <Centroid res>  (68) 
7goa/A/0/A_v1

>  <Experiment code>  (68) 
7goa

>  <Pose>  (68) 
7goa-b

$$$$
7goa-a
     RDKit          3D

 13 14  0  0  0  0  0  0  0  0999 V2000
   -5.6280   -3.2020    5.9130 N   0  0  0  0  0  0  0  0  0  0  0  0
   -4.4040   -2.8580    6.1160 C   0  0  0  0  0  0  0  0  0  0  0  0
   -5.8450   -1.2940    7.2780 C   0  0  0  0  0  0  0  0  0  0  0  0
   -6.5600   -0.3410    7.9870 C   0  0  0  0  0  0  0  0  0  0  0  0
  -10.2570    0.4850    8.7160 O   0  0  0  0  0  0  0  0  0  0  0  0
   -8.8650    0.7830    8.8870 S   0  0  0  0  0  0  0  0  0  0  0  0
   -8.3270    0.8320   10.2140 O   0  0  0  0  0  0  0  0  0  0  0  0
   -8.5950    2.2130    8.2140 N   0  0  0  0  0  0  0  0  0  0  0  0
   -7.9430   -0.4300    7.9940 C   0  0  0  0  0  0  0  0  0  0  0  0
   -4.1290   -1.4600    7.1030 S   0  0  0  0  0  0  0  0  0  0  0  0
   -6.4860   -2.3200    6.5760 C   0  0  0  0  0  0  0  0  0  0  0  0
   -7.8790   -2.3910    6.6030 C   0  0  0  0  0  0  0  0  0  0  0  0
   -8.6070   -1.4470    7.3140 C   0  0  0  0  0  0  0  0  0  0  0  0
  2  1  2  0
  2 10  1  0
  1 11  1  0
 10  3  1  0
 11  3  2  0
 11 12  1  0
  3  4  1  0
 12 13  2  0
  8  6  1  0
  4  9  2  0
 13  9  1  0
  9  6  1  0
  6  7  2  0
  6  5  2  0
M  END
>  <id>  (69) 
69

>  <inchikey>  (69) 
KRRLILAOGRCMFH-UHFFFAOYSA-N

>  <alias>  (69) 
7goa-a

>  <smiles>  (69) 
NS(=O)(=O)c1ccc2ncsc2c1

>  <path>  (69) 
/opt/xchem-fragalysis-2/maxwin/BulkDock/TARGETS/D68EV3C/aligned_files/7goa-a/7goa-a_hippo.pdb

>  <distance_score>  (69) 
None

>  <energy_score>  (69) 
None

>  <compound>  (69) 
KRRLILAOGRCMFH-UHFFFAOYSA-N

>  <compound_id>  (69) 
55

>  <target>  (69) 
D68EV3C

>  <tags>  (69) 
['BAD count', '[Other] upload_1 2025-02-11', 'hits', 'MEDIOCRE count', 'Main status', 'GOOD count']

>  <inspirations>  (69) 
None

>  <subsites>  (69) 
None

>  <reference>  (69) 


>  <observation_longname>  (69) 
7goa_B_201_v1

>  <ConformerSites alias>  (69) 
3a - 7gpw/B/202

>  <CanonSites alias>  (69) 
3 - 7gpw/B/202/1

>  <CrystalformSites alias>  (69) 
F2l - 7go5/B/401/1

>  <Quatassemblies alias>  (69) 
A1 - monomer

>  <Crystalforms alias>  (69) 
F2 - EVD68_Reference_20230131

>  <ConformerSites upload name>  (69) 
3a - 7gpw/B/202

>  <CanonSites upload name>  (69) 
3 - 7gpw/B/202/1

>  <CrystalformSites upload name>  (69) 
F2l - 7go5/B/401/1

>  <Quatassemblies upload name>  (69) 
A1 - monomer

>  <Crystalforms upload name>  (69) 
F2 - EVD68_Reference_20230131

>  <ConformerSites short tag>  (69) 
3a - 7gpw/B/202

>  <CanonSites short tag>  (69) 
3 - 7gpw/B/202/1

>  <CrystalformSites short tag>  (69) 
F2l - 7go5/B/401/1

>  <Quatassemblies short tag>  (69) 
A1 - monomer

>  <Crystalforms short tag>  (69) 
F2 - EVD68_Reference_20230131

>  <Centroid res>  (69) 
7gpw/B/74/B_v1

>  <Experiment code>  (69) 
7goa

>  <Pose>  (69) 
7goa-a

$$$$
7gpm-a
     RDKit          3D

 13 14  0  0  0  0  0  0  0  0999 V2000
   -1.9830    2.7580   28.0750 N   0  0  0  0  0  0  0  0  0  0  0  0
   -1.9390    1.6060   27.4720 C   0  0  0  0  0  0  0  0  0  0  0  0
   -1.7120    0.2830   28.1540 C   0  0  2  0  0  0  0  0  0  0  0  0
   -1.8210    0.3710   29.6820 C   0  0  0  0  0  0  0  0  0  0  0  0
   -0.4030    0.7020   30.1340 C   0  0  0  0  0  0  0  0  0  0  0  0
    0.4890    0.0140   29.1060 C   0  0  0  0  0  0  0  0  0  0  0  0
   -2.0140    1.6690   26.1060 N   0  0  0  0  0  0  0  0  0  0  0  0
   -1.3570    2.8430   23.4770 C   0  0  0  0  0  0  0  0  0  0  0  0
   -2.0730    3.6740   27.0040 O   0  0  0  0  0  0  0  0  0  0  0  0
   -2.0240    3.6470   24.5690 C   0  0  0  0  0  0  0  0  0  0  0  0
   -3.4180    4.0310   24.1490 C   0  0  0  0  0  0  0  0  0  0  0  0
   -2.0690    2.9380   25.8820 C   0  0  0  0  0  0  0  0  0  0  0  0
   -0.3650   -0.2580   27.9310 N   0  0  0  0  0  0  0  0  0  0  0  0
  8 10  1  0
 10 11  1  0
 10 12  1  0
 12  9  1  0
 12  7  2  0
  9  1  1  0
  7  2  1  0
  1  2  2  0
  3  2  1  6
 13  6  1  0
 13  3  1  0
  6  5  1  0
  3  4  1  0
  5  4  1  0
M  END
>  <id>  (70) 
70

>  <inchikey>  (70) 
WKTDGUSTKNDUEI-ZETCQYMHSA-N

>  <alias>  (70) 
7gpm-a

>  <smiles>  (70) 
CC(C)c1nc([C@@H]2CCCN2)no1

>  <path>  (70) 
/opt/xchem-fragalysis-2/maxwin/BulkDock/TARGETS/D68EV3C/aligned_files/7gpm-a/7gpm-a.pdb

>  <distance_score>  (70) 
None

>  <energy_score>  (70) 
None

>  <compound>  (70) 
WKTDGUSTKNDUEI-UHFFFAOYSA-N

>  <compound_id>  (70) 
56

>  <target>  (70) 
D68EV3C

>  <tags>  (70) 
['BAD count', '[Other] upload_1 2025-02-11', '[Other] iter1_frags', 'hits', 'MEDIOCRE count', 'Main status', 'GOOD count']

>  <inspirations>  (70) 
None

>  <subsites>  (70) 
None

>  <reference>  (70) 


>  <observation_longname>  (70) 
7gpm_B_201_v1

>  <ConformerSites alias>  (70) 
1a - 7gp9/A/201

>  <CanonSites alias>  (70) 
1 - 7gp9/A/201/1

>  <CrystalformSites alias>  (70) 
F2d - 7gpm/B/201/1

>  <Quatassemblies alias>  (70) 
A1 - monomer

>  <Crystalforms alias>  (70) 
F2 - EVD68_Reference_20230131

>  <ConformerSites upload name>  (70) 
1a - 7gp9/A/201

>  <CanonSites upload name>  (70) 
1 - 7gp9/A/201/1

>  <CrystalformSites upload name>  (70) 
F2d - 7gpm/B/201/1

>  <Quatassemblies upload name>  (70) 
A1 - monomer

>  <Crystalforms upload name>  (70) 
F2 - EVD68_Reference_20230131

>  <ConformerSites short tag>  (70) 
1a - 7gp9/A/201

>  <CanonSites short tag>  (70) 
1 - 7gp9/A/201/1

>  <CrystalformSites short tag>  (70) 
F2d - 7gpm/B/201/1

>  <Quatassemblies short tag>  (70) 
A1 - monomer

>  <Crystalforms short tag>  (70) 
F2 - EVD68_Reference_20230131

>  <Centroid res>  (70) 
7gp9/A/163/A_v1

>  <Experiment code>  (70) 
7gpm

>  <Pose>  (70) 
7gpm-a

$$$$
7gny-a
     RDKit          3D

 15 16  0  0  0  0  0  0  0  0999 V2000
   16.0910    1.4620   17.6320 C   0  0  0  0  0  0  0  0  0  0  0  0
   15.3360   -2.8110   17.1050 O   0  0  0  0  0  0  0  0  0  0  0  0
   14.5800   -1.8440   16.9900 C   0  0  0  0  0  0  0  0  0  0  0  0
   14.8440   -0.6340   17.5090 N   0  0  0  0  0  0  0  0  0  0  0  0
   16.1860   -0.0480   17.5030 C   0  0  2  0  0  0  0  0  0  0  0  0
   17.0480   -0.6300   18.6210 C   0  0  0  0  0  0  0  0  0  0  0  0
   16.6680   -0.1460   20.0230 C   0  0  0  0  0  0  0  0  0  0  0  0
   15.7380    1.0320   20.0470 C   0  0  0  0  0  0  0  0  0  0  0  0
   15.0240    1.2380   21.0250 O   0  0  0  0  0  0  0  0  0  0  0  0
   15.6990    1.8290   18.9910 N   0  0  0  0  0  0  0  0  0  0  0  0
   13.3120   -1.9430   16.2250 C   0  0  0  0  0  0  0  0  0  0  0  0
   12.6860   -3.1140   15.9470 C   0  0  0  0  0  0  0  0  0  0  0  0
   11.3550   -2.8420   14.9220 S   0  0  0  0  0  0  0  0  0  0  0  0
   11.7050   -1.1700   14.9440 C   0  0  0  0  0  0  0  0  0  0  0  0
   12.7380   -0.8170   15.6550 N   0  0  0  0  0  0  0  0  0  0  0  0
 12 13  1  0
 12 11  2  0
 13 14  1  0
  2  3  2  0
 11  3  1  0
 11 15  1  0
  3  4  1  0
 14 15  2  0
  1 10  1  0
  1  5  1  0
 10  8  1  0
  5  4  1  1
  5  6  1  0
  8  9  2  0
  8  7  1  0
  6  7  1  0
M  END
>  <id>  (71) 
71

>  <inchikey>  (71) 
MTDCJLXPYPQTPX-ZCFIWIBFSA-N

>  <alias>  (71) 
7gny-a

>  <smiles>  (71) 
O=C1CC[C@@H](NC(=O)c2cscn2)CN1

>  <path>  (71) 
/opt/xchem-fragalysis-2/maxwin/BulkDock/TARGETS/D68EV3C/aligned_files/7gny-a/7gny-a.pdb

>  <distance_score>  (71) 
None

>  <energy_score>  (71) 
None

>  <compound>  (71) 
MTDCJLXPYPQTPX-UHFFFAOYSA-N

>  <compound_id>  (71) 
57

>  <target>  (71) 
D68EV3C

>  <tags>  (71) 
['BAD count', '[Other] upload_1 2025-02-11', 'hits', 'MEDIOCRE count', 'Main status', 'GOOD count']

>  <inspirations>  (71) 
None

>  <subsites>  (71) 
None

>  <reference>  (71) 


>  <observation_longname>  (71) 
7gny_B_201_v1

>  <ConformerSites alias>  (71) 
2a - 7gon/B/201

>  <CanonSites alias>  (71) 
2 - 7gon/B/201/1

>  <CrystalformSites alias>  (71) 
F2j - 7gqb/B/201/1

>  <Quatassemblies alias>  (71) 
A1 - monomer

>  <Crystalforms alias>  (71) 
F2 - EVD68_Reference_20230131

>  <ConformerSites upload name>  (71) 
2a - 7gon/B/201

>  <CanonSites upload name>  (71) 
2 - 7gon/B/201/1

>  <CrystalformSites upload name>  (71) 
F2j - 7gqb/B/201/1

>  <Quatassemblies upload name>  (71) 
A1 - monomer

>  <Crystalforms upload name>  (71) 
F2 - EVD68_Reference_20230131

>  <ConformerSites short tag>  (71) 
2a - 7gon/B/201

>  <CanonSites short tag>  (71) 
2 - 7gon/B/201/1

>  <CrystalformSites short tag>  (71) 
F2j - 7gqb/B/201/1

>  <Quatassemblies short tag>  (71) 
A1 - monomer

>  <Crystalforms short tag>  (71) 
F2 - EVD68_Reference_20230131

>  <Centroid res>  (71) 
7gon/B/47/B_v1

>  <Experiment code>  (71) 
7gny

>  <Pose>  (71) 
7gny-a

$$$$
7gqf-a
     RDKit          3D

 10 11  0  0  0  0  0  0  0  0999 V2000
   -1.4190   -8.1260   31.1110 N   0  0  0  0  0  0  0  0  0  0  0  0
   -0.2530   -6.8140   32.4920 N   0  0  0  0  0  0  0  0  0  0  0  0
    0.6230   -5.8280   34.4510 C   0  0  0  0  0  0  0  0  0  0  0  0
    0.6440   -5.9570   33.1050 C   0  0  0  0  0  0  0  0  0  0  0  0
    0.2560   -6.7270   30.1550 N   0  0  0  0  0  0  0  0  0  0  0  0
   -0.4570   -7.2170   31.1740 C   0  0  0  0  0  0  0  0  0  0  0  0
   -1.1810   -7.5560   33.2180 C   0  0  0  0  0  0  0  0  0  0  0  0
   -1.8830   -8.3430   32.4110 N   0  0  0  0  0  0  0  0  0  0  0  0
   -0.3160   -6.5540   35.2160 C   0  0  0  0  0  0  0  0  0  0  0  0
   -1.2030   -7.3980   34.6240 C   0  0  0  0  0  0  0  0  0  0  0  0
 10  9  2  0
 10  7  1  0
  9  3  1  0
  8  7  2  0
  8  1  1  0
  7  2  1  0
  3  4  2  0
  1  6  2  0
  2  4  1  0
  2  6  1  0
  6  5  1  0
M  END
>  <id>  (72) 
72

>  <inchikey>  (72) 
NCZQAIFOXJOCFI-UHFFFAOYSA-N

>  <alias>  (72) 
7gqf-a

>  <smiles>  (72) 
Nc1nnc2ccccn12

>  <path>  (72) 
/opt/xchem-fragalysis-2/maxwin/BulkDock/TARGETS/D68EV3C/aligned_files/7gqf-a/7gqf-a.pdb

>  <distance_score>  (72) 
None

>  <energy_score>  (72) 
None

>  <compound>  (72) 
NCZQAIFOXJOCFI-UHFFFAOYSA-N

>  <compound_id>  (72) 
58

>  <target>  (72) 
D68EV3C

>  <tags>  (72) 
['BAD count', '[Other] upload_1 2025-02-11', '[Other] iter1_frags', 'hits', 'MEDIOCRE count', 'Main status', 'GOOD count']

>  <inspirations>  (72) 
None

>  <subsites>  (72) 
None

>  <reference>  (72) 


>  <observation_longname>  (72) 
7gqf_A_201_v1

>  <ConformerSites alias>  (72) 
1a - 7gp9/A/201

>  <CanonSites alias>  (72) 
1 - 7gp9/A/201/1

>  <CrystalformSites alias>  (72) 
F2b - 7gp9/A/201/1

>  <Quatassemblies alias>  (72) 
A1 - monomer

>  <Crystalforms alias>  (72) 
F2 - EVD68_Reference_20230131

>  <ConformerSites upload name>  (72) 
1a - 7gp9/A/201

>  <CanonSites upload name>  (72) 
1 - 7gp9/A/201/1

>  <CrystalformSites upload name>  (72) 
F2b - 7gp9/A/201/1

>  <Quatassemblies upload name>  (72) 
A1 - monomer

>  <Crystalforms upload name>  (72) 
F2 - EVD68_Reference_20230131

>  <ConformerSites short tag>  (72) 
1a - 7gp9/A/201

>  <CanonSites short tag>  (72) 
1 - 7gp9/A/201/1

>  <CrystalformSites short tag>  (72) 
F2b - 7gp9/A/201/1

>  <Quatassemblies short tag>  (72) 
A1 - monomer

>  <Crystalforms short tag>  (72) 
F2 - EVD68_Reference_20230131

>  <Centroid res>  (72) 
7gp9/A/163/A_v1

>  <Experiment code>  (72) 
7gqf

>  <Pose>  (72) 
7gqf-a

$$$$
7go1-a
     RDKit          3D

 13 13  0  0  0  0  0  0  0  0999 V2000
   -7.4760   -2.7200    7.0550 C   0  0  0  0  0  0  0  0  0  0  0  0
   -8.8140   -3.3960    6.9290 C   0  0  0  0  0  0  0  0  0  0  0  0
   -7.3030   -1.6700    7.9470 C   0  0  0  0  0  0  0  0  0  0  0  0
   -6.0840   -1.0450    8.0140 C   0  0  0  0  0  0  0  0  0  0  0  0
   -9.1130   -2.3310    4.5490 N   0  0  0  0  0  0  0  0  0  0  0  0
   -3.6530   -0.7270    7.3870 C   0  0  0  0  0  0  0  0  0  0  0  0
   -9.9350   -1.0810    6.4980 O   0  0  0  0  0  0  0  0  0  0  0  0
   -4.9920   -1.4030    7.2520 C   0  0  0  0  0  0  0  0  0  0  0  0
   -5.1860   -2.4570    6.3620 C   0  0  0  0  0  0  0  0  0  0  0  0
   -6.4050   -3.0990    6.2610 C   0  0  0  0  0  0  0  0  0  0  0  0
   -5.9530   -0.0190    8.8760 F   0  0  0  0  0  0  0  0  0  0  0  0
  -11.1230   -3.1200    5.7360 O   0  0  0  0  0  0  0  0  0  0  0  0
   -9.9090   -2.3940    5.9360 S   0  0  0  0  0  0  0  0  0  0  0  0
  6  8  1  0
  8  9  2  0
  9 10  1  0
 10  1  2  0
  2  1  1  0
 13  2  1  0
  7 13  2  0
 12 13  2  0
  5 13  1  0
  1  3  1  0
  3  4  2  0
  8  4  1  0
  4 11  1  0
M  END
>  <id>  (73) 
73

>  <inchikey>  (73) 
BRGBJOARAPZJCN-UHFFFAOYSA-N

>  <alias>  (73) 
7go1-a

>  <smiles>  (73) 
Cc1ccc(CS(N)(=O)=O)cc1F

>  <path>  (73) 
/opt/xchem-fragalysis-2/maxwin/BulkDock/TARGETS/D68EV3C/aligned_files/7go1-a/7go1-a_hippo.pdb

>  <distance_score>  (73) 
None

>  <energy_score>  (73) 
None

>  <compound>  (73) 
BRGBJOARAPZJCN-UHFFFAOYSA-N

>  <compound_id>  (73) 
59

>  <target>  (73) 
D68EV3C

>  <tags>  (73) 
['BAD count', '[Other] upload_1 2025-02-11', 'hits', 'MEDIOCRE count', 'Main status', 'GOOD count']

>  <inspirations>  (73) 
None

>  <subsites>  (73) 
None

>  <reference>  (73) 


>  <observation_longname>  (73) 
7go1_A_201_v1

>  <ConformerSites alias>  (73) 
3a - 7gpw/B/202

>  <CanonSites alias>  (73) 
3 - 7gpw/B/202/1

>  <CrystalformSites alias>  (73) 
F2m - 7goi/A/201/1

>  <Quatassemblies alias>  (73) 
A1 - monomer

>  <Crystalforms alias>  (73) 
F2 - EVD68_Reference_20230131

>  <ConformerSites upload name>  (73) 
3a - 7gpw/B/202

>  <CanonSites upload name>  (73) 
3 - 7gpw/B/202/1

>  <CrystalformSites upload name>  (73) 
F2m - 7goi/A/201/1

>  <Quatassemblies upload name>  (73) 
A1 - monomer

>  <Crystalforms upload name>  (73) 
F2 - EVD68_Reference_20230131

>  <ConformerSites short tag>  (73) 
3a - 7gpw/B/202

>  <CanonSites short tag>  (73) 
3 - 7gpw/B/202/1

>  <CrystalformSites short tag>  (73) 
F2m - 7goi/A/201/1

>  <Quatassemblies short tag>  (73) 
A1 - monomer

>  <Crystalforms short tag>  (73) 
F2 - EVD68_Reference_20230131

>  <Centroid res>  (73) 
7gpw/B/74/B_v1

>  <Experiment code>  (73) 
7go1

>  <Pose>  (73) 
7go1-a

$$$$
7go1-b
     RDKit          3D

 13 13  0  0  0  0  0  0  0  0999 V2000
   -7.9230   -3.0150    6.7400 C   0  0  0  0  0  0  0  0  0  0  0  0
   -9.2340   -3.7490    6.7530 C   0  0  0  0  0  0  0  0  0  0  0  0
   -7.7590   -1.8440    7.4720 C   0  0  0  0  0  0  0  0  0  0  0  0
   -6.5250   -1.2410    7.5020 C   0  0  0  0  0  0  0  0  0  0  0  0
  -11.6970   -2.7730    6.4940 N   0  0  0  0  0  0  0  0  0  0  0  0
   -4.0450   -1.1250    7.0020 C   0  0  0  0  0  0  0  0  0  0  0  0
  -10.7360   -4.0680    4.6400 O   0  0  0  0  0  0  0  0  0  0  0  0
   -5.4150   -1.7320    6.8510 C   0  0  0  0  0  0  0  0  0  0  0  0
   -5.6090   -2.8840    6.0930 C   0  0  0  0  0  0  0  0  0  0  0  0
   -6.8390   -3.5120    6.0370 C   0  0  0  0  0  0  0  0  0  0  0  0
   -6.3980   -0.0890    8.1960 F   0  0  0  0  0  0  0  0  0  0  0  0
   -9.8850   -1.8050    5.1460 O   0  0  0  0  0  0  0  0  0  0  0  0
  -10.4050   -3.0570    5.5930 S   0  0  0  0  0  0  0  0  0  0  0  0
  6  8  1  0
  8  9  2  0
  9 10  1  0
 10  1  2  0
  2  1  1  0
 13  2  1  0
  7 13  2  0
 12 13  2  0
  5 13  1  0
  1  3  1  0
  3  4  2  0
  8  4  1  0
  4 11  1  0
M  END
>  <id>  (74) 
74

>  <inchikey>  (74) 
BRGBJOARAPZJCN-UHFFFAOYSA-N

>  <alias>  (74) 
7go1-b

>  <smiles>  (74) 
Cc1ccc(CS(N)(=O)=O)cc1F

>  <path>  (74) 
/opt/xchem-fragalysis-2/maxwin/BulkDock/TARGETS/D68EV3C/aligned_files/7go1-b/7go1-b_hippo.pdb

>  <distance_score>  (74) 
None

>  <energy_score>  (74) 
None

>  <compound>  (74) 
BRGBJOARAPZJCN-UHFFFAOYSA-N

>  <compound_id>  (74) 
59

>  <target>  (74) 
D68EV3C

>  <tags>  (74) 
['BAD count', '[Other] upload_1 2025-02-11', 'hits', 'MEDIOCRE count', 'Main status', 'GOOD count']

>  <inspirations>  (74) 
None

>  <subsites>  (74) 
None

>  <reference>  (74) 


>  <observation_longname>  (74) 
7go1_B_201_v1

>  <ConformerSites alias>  (74) 
3a - 7gpw/B/202

>  <CanonSites alias>  (74) 
3 - 7gpw/B/202/1

>  <CrystalformSites alias>  (74) 
F2l - 7go5/B/401/1

>  <Quatassemblies alias>  (74) 
A1 - monomer

>  <Crystalforms alias>  (74) 
F2 - EVD68_Reference_20230131

>  <ConformerSites upload name>  (74) 
3a - 7gpw/B/202

>  <CanonSites upload name>  (74) 
3 - 7gpw/B/202/1

>  <CrystalformSites upload name>  (74) 
F2l - 7go5/B/401/1

>  <Quatassemblies upload name>  (74) 
A1 - monomer

>  <Crystalforms upload name>  (74) 
F2 - EVD68_Reference_20230131

>  <ConformerSites short tag>  (74) 
3a - 7gpw/B/202

>  <CanonSites short tag>  (74) 
3 - 7gpw/B/202/1

>  <CrystalformSites short tag>  (74) 
F2l - 7go5/B/401/1

>  <Quatassemblies short tag>  (74) 
A1 - monomer

>  <Crystalforms short tag>  (74) 
F2 - EVD68_Reference_20230131

>  <Centroid res>  (74) 
7gpw/B/74/B_v1

>  <Experiment code>  (74) 
7go1

>  <Pose>  (74) 
7go1-a

$$$$
7go3-a
     RDKit          3D

 10 10  0  0  0  0  0  0  0  0999 V2000
  -10.1040  -26.0540   31.1310 N   0  0  0  0  0  0  0  0  0  0  0  0
  -10.6980  -25.3680   28.8210 C   0  0  0  0  0  0  0  0  0  0  0  0
   -9.8520  -26.2290   29.7020 C   0  0  0  0  0  0  0  0  0  0  0  0
   -9.1950  -25.0850   31.7410 C   0  0  0  0  0  0  0  0  0  0  0  0
  -11.8000  -24.7920   27.1000 N   0  0  0  0  0  0  0  0  0  0  0  0
  -12.8990  -26.2970   25.4680 C   0  0  0  0  0  0  0  0  0  0  0  0
  -12.3950  -24.9070   25.7660 C   0  0  0  0  0  0  0  0  0  0  0  0
  -11.9190  -23.7700   27.9640 C   0  0  0  0  0  0  0  0  0  0  0  0
  -11.2260  -24.1110   29.0820 C   0  0  0  0  0  0  0  0  0  0  0  0
  -11.0420  -25.7970   27.6000 N   0  0  0  0  0  0  0  0  0  0  0  0
  7  5  1  0
  7  6  1  0
  8  5  1  0
  8  9  2  0
  5 10  1  0
  9  2  1  0
 10  2  2  0
  2  3  1  0
  3  1  1  0
  4  1  1  0
M  END
>  <id>  (75) 
75

>  <inchikey>  (75) 
BBWULNDJJUENCE-UHFFFAOYSA-N

>  <alias>  (75) 
7go3-a

>  <smiles>  (75) 
CCn1ccc(CNC)n1

>  <path>  (75) 
/opt/xchem-fragalysis-2/maxwin/BulkDock/TARGETS/D68EV3C/aligned_files/7go3-a/7go3-a.pdb

>  <distance_score>  (75) 
None

>  <energy_score>  (75) 
None

>  <compound>  (75) 
BBWULNDJJUENCE-UHFFFAOYSA-N

>  <compound_id>  (75) 
60

>  <target>  (75) 
D68EV3C

>  <tags>  (75) 
['BAD count', '[Other] upload_1 2025-02-11', 'hits', 'MEDIOCRE count', 'Main status', 'GOOD count']

>  <inspirations>  (75) 
None

>  <subsites>  (75) 
None

>  <reference>  (75) 


>  <observation_longname>  (75) 
7go3_A_301_v1

>  <ConformerSites alias>  (75) 
10a - 7go3/A/301

>  <CanonSites alias>  (75) 
10 - 7gq5/A/201/1

>  <CrystalformSites alias>  (75) 
F2af - 7gq5/A/201/1

>  <Quatassemblies alias>  (75) 
A1 - monomer

>  <Crystalforms alias>  (75) 
F2 - EVD68_Reference_20230131

>  <ConformerSites upload name>  (75) 
10a - 7go3/A/301

>  <CanonSites upload name>  (75) 
10 - 7gq5/A/201/1

>  <CrystalformSites upload name>  (75) 
F2af - 7gq5/A/201/1

>  <Quatassemblies upload name>  (75) 
A1 - monomer

>  <Crystalforms upload name>  (75) 
F2 - EVD68_Reference_20230131

>  <ConformerSites short tag>  (75) 
10a - 7go3/A/301

>  <CanonSites short tag>  (75) 
10 - 7gq5/A/201/1

>  <CrystalformSites short tag>  (75) 
F2af - 7gq5/A/201/1

>  <Quatassemblies short tag>  (75) 
A1 - monomer

>  <Crystalforms short tag>  (75) 
F2 - EVD68_Reference_20230131

>  <Centroid res>  (75) 
7gq5/B/115/A_v1

>  <Experiment code>  (75) 
7go3

>  <Pose>  (75) 
7go3-a

$$$$
7gpc-a
     RDKit          3D

 13 13  0  0  0  0  0  0  0  0999 V2000
   13.9250   -2.0260   15.6220 C   0  0  0  0  0  0  0  0  0  0  0  0
   14.9380   -0.9360   15.4340 C   0  0  0  0  0  0  0  0  0  0  0  0
   14.9670    1.6640   15.1400 C   0  0  0  0  0  0  0  0  0  0  0  0
   13.8920    2.7470   15.1400 C   0  0  0  0  0  0  0  0  0  0  0  0
   15.8240    1.7870   16.4010 C   0  0  0  0  0  0  0  0  0  0  0  0
   14.3050    0.3320   15.0650 N   0  0  0  0  0  0  0  0  0  0  0  0
   12.4300   -1.5160   13.6450 C   0  0  0  0  0  0  0  0  0  0  0  0
   15.0650    2.4700   12.8270 O   0  0  0  0  0  0  0  0  0  0  0  0
   12.7970   -2.2450   14.8990 C   0  0  0  0  0  0  0  0  0  0  0  0
   12.0300   -3.3080   15.4300 C   0  0  0  0  0  0  0  0  0  0  0  0
   12.5910   -3.8870   16.5120 C   0  0  0  0  0  0  0  0  0  0  0  0
   15.8010    1.8720   13.8860 C   0  0  0  0  0  0  0  0  0  0  0  0
   14.0580   -3.1530   16.9280 S   0  0  0  0  0  0  0  0  0  0  0  0
  8 12  1  0
 12  3  1  0
  5  3  1  0
  3  6  1  0
  3  4  1  0
 13 11  1  0
 13  1  1  0
  6  2  1  0
 11 10  2  0
  2  1  1  0
  1  9  2  0
 10  9  1  0
  9  7  1  0
M  END
>  <id>  (76) 
76

>  <inchikey>  (76) 
IFQLAGXBYFTXBB-UHFFFAOYSA-N

>  <alias>  (76) 
7gpc-a

>  <smiles>  (76) 
Cc1ccsc1CNC(C)(C)CO

>  <path>  (76) 
/opt/xchem-fragalysis-2/maxwin/BulkDock/TARGETS/D68EV3C/aligned_files/7gpc-a/7gpc-a.pdb

>  <distance_score>  (76) 
None

>  <energy_score>  (76) 
None

>  <compound>  (76) 
IFQLAGXBYFTXBB-UHFFFAOYSA-N

>  <compound_id>  (76) 
61

>  <target>  (76) 
D68EV3C

>  <tags>  (76) 
['BAD count', '[Other] upload_1 2025-02-11', 'hits', 'MEDIOCRE count', 'Main status', 'GOOD count']

>  <inspirations>  (76) 
None

>  <subsites>  (76) 
None

>  <reference>  (76) 


>  <observation_longname>  (76) 
7gpc_B_201_v1

>  <ConformerSites alias>  (76) 
2a - 7gon/B/201

>  <CanonSites alias>  (76) 
2 - 7gon/B/201/1

>  <CrystalformSites alias>  (76) 
F2j - 7gqb/B/201/1

>  <Quatassemblies alias>  (76) 
A1 - monomer

>  <Crystalforms alias>  (76) 
F2 - EVD68_Reference_20230131

>  <ConformerSites upload name>  (76) 
2a - 7gon/B/201

>  <CanonSites upload name>  (76) 
2 - 7gon/B/201/1

>  <CrystalformSites upload name>  (76) 
F2j - 7gqb/B/201/1

>  <Quatassemblies upload name>  (76) 
A1 - monomer

>  <Crystalforms upload name>  (76) 
F2 - EVD68_Reference_20230131

>  <ConformerSites short tag>  (76) 
2a - 7gon/B/201

>  <CanonSites short tag>  (76) 
2 - 7gon/B/201/1

>  <CrystalformSites short tag>  (76) 
F2j - 7gqb/B/201/1

>  <Quatassemblies short tag>  (76) 
A1 - monomer

>  <Crystalforms short tag>  (76) 
F2 - EVD68_Reference_20230131

>  <Centroid res>  (76) 
7gon/B/47/B_v1

>  <Experiment code>  (76) 
7gpc

>  <Pose>  (76) 
7gpc-a

$$$$
7gnw-a
     RDKit          3D

 15 15  0  0  0  0  0  0  0  0999 V2000
  -11.4360  -25.0100   12.7860 C   0  0  0  0  0  0  0  0  0  0  0  0
  -12.8060  -24.9010   12.5540 C   0  0  0  0  0  0  0  0  0  0  0  0
  -13.7060  -25.4180   13.4650 C   0  0  0  0  0  0  0  0  0  0  0  0
  -13.2450  -26.0380   14.6320 C   0  0  0  0  0  0  0  0  0  0  0  0
  -14.7800  -25.4730   16.3540 C   0  0  0  0  0  0  0  0  0  0  0  0
  -10.4720  -24.4430   11.8050 C   0  0  0  0  0  0  0  0  0  0  0  0
  -10.5560  -27.8790   15.8760 C   0  0  0  0  0  0  0  0  0  0  0  0
  -11.4930  -26.8070   15.9970 O   0  0  0  0  0  0  0  0  0  0  0  0
  -11.8650  -26.1610   14.8520 C   0  0  0  0  0  0  0  0  0  0  0  0
  -10.9690  -25.6470   13.9310 C   0  0  0  0  0  0  0  0  0  0  0  0
  -14.1490  -26.4890   15.5760 O   0  0  0  0  0  0  0  0  0  0  0  0
  -15.0630  -25.3940   13.2990 O   0  0  0  0  0  0  0  0  0  0  0  0
  -15.6040  -26.1180   12.1940 C   0  0  0  0  0  0  0  0  0  0  0  0
  -10.9390  -24.3340   10.5900 O   0  0  0  0  0  0  0  0  0  0  0  0
   -9.3340  -24.1230   12.1210 O   0  0  0  0  0  0  0  0  0  0  0  0
  5 11  1  0
 11  4  1  0
  8  7  1  0
  8  9  1  0
 12 13  1  0
 12  3  1  0
  4  9  1  0
  4  3  2  0
  9 10  2  0
  3  2  1  0
  2  1  2  0
 10  1  1  0
  1  6  1  0
  6 14  2  0
  6 15  1  0
M  END
>  <id>  (77) 
77

>  <inchikey>  (77) 
SJSOFNCYXJUNBT-UHFFFAOYSA-N

>  <alias>  (77) 
7gnw-a

>  <smiles>  (77) 
COc1cc(C(=O)O)cc(OC)c1OC

>  <path>  (77) 
/opt/xchem-fragalysis-2/maxwin/BulkDock/TARGETS/D68EV3C/aligned_files/7gnw-a/7gnw-a.pdb

>  <distance_score>  (77) 
None

>  <energy_score>  (77) 
None

>  <compound>  (77) 
SJSOFNCYXJUNBT-UHFFFAOYSA-N

>  <compound_id>  (77) 
62

>  <target>  (77) 
D68EV3C

>  <tags>  (77) 
['BAD count', '[Other] upload_1 2025-02-11', 'hits', 'MEDIOCRE count', 'Main status', 'GOOD count']

>  <inspirations>  (77) 
None

>  <subsites>  (77) 
None

>  <reference>  (77) 


>  <observation_longname>  (77) 
7gnw_A_201_v1

>  <ConformerSites alias>  (77) 
4a - 7gp7/A/201

>  <CanonSites alias>  (77) 
4 - 7gp7/A/201/1

>  <CrystalformSites alias>  (77) 
F2q - 7gp7/A/201/1

>  <Quatassemblies alias>  (77) 
A1 - monomer

>  <Crystalforms alias>  (77) 
F2 - EVD68_Reference_20230131

>  <ConformerSites upload name>  (77) 
4a - 7gp7/A/201

>  <CanonSites upload name>  (77) 
4 - 7gp7/A/201/1

>  <CrystalformSites upload name>  (77) 
F2q - 7gp7/A/201/1

>  <Quatassemblies upload name>  (77) 
A1 - monomer

>  <Crystalforms upload name>  (77) 
F2 - EVD68_Reference_20230131

>  <ConformerSites short tag>  (77) 
4a - 7gp7/A/201

>  <CanonSites short tag>  (77) 
4 - 7gp7/A/201/1

>  <CrystalformSites short tag>  (77) 
F2q - 7gp7/A/201/1

>  <Quatassemblies short tag>  (77) 
A1 - monomer

>  <Crystalforms short tag>  (77) 
F2 - EVD68_Reference_20230131

>  <Centroid res>  (77) 
7gp7/A/6/A_v1

>  <Experiment code>  (77) 
7gnw

>  <Pose>  (77) 
7gnw-a

$$$$
7gqh-a
     RDKit          3D

 15 16  0  0  0  0  0  0  0  0999 V2000
   -1.3870   -7.6550   33.7650 C   0  0  0  0  0  0  0  0  0  0  0  0
    0.3530   -6.1180   37.8800 C   0  0  0  0  0  0  0  0  0  0  0  0
    0.2870   -5.8410   36.3950 C   0  0  0  0  0  0  0  0  0  0  0  0
   -0.3850   -4.5240   36.0700 C   0  0  0  0  0  0  0  0  0  0  0  0
    1.8450   -5.9550   34.5430 C   0  0  0  0  0  0  0  0  0  0  0  0
    0.7620   -6.5580   33.7710 C   0  0  0  0  0  0  0  0  0  0  0  0
    0.8470   -6.7210   32.3900 C   0  0  0  0  0  0  0  0  0  0  0  0
   -0.1780   -7.3690   31.7200 C   0  0  0  0  0  0  0  0  0  0  0  0
   -1.2950   -7.8480   32.3950 C   0  0  0  0  0  0  0  0  0  0  0  0
   -0.3610   -7.0260   34.4340 C   0  0  0  0  0  0  0  0  0  0  0  0
    1.6430   -5.8520   35.8880 O   0  0  0  0  0  0  0  0  0  0  0  0
    2.9020   -5.5660   34.1060 O   0  0  0  0  0  0  0  0  0  0  0  0
   -2.2570   -8.5200   31.7220 O   0  0  0  0  0  0  0  0  0  0  0  0
   -0.4680   -6.9210   35.8010 O   0  0  0  0  0  0  0  0  0  0  0  0
   -0.0440   -7.6220   29.8460 Br  0  0  0  0  0  0  0  0  0  0  0  0
  3  2  1  0
  4  3  1  0
 11  3  1  0
  5 11  1  0
 12  5  2  0
  6  5  1  0
  7  6  1  0
  8  7  2  0
 15  8  1  0
  9  8  1  0
 13  9  1  0
  1  9  2  0
 10  1  1  0
 14 10  1  0
  3 14  1  0
  6 10  2  0
M  END
>  <id>  (78) 
78

>  <inchikey>  (78) 
FOZVJTHORLMHQD-UHFFFAOYSA-N

>  <alias>  (78) 
7gqh-a

>  <smiles>  (78) 
CC1(C)OC(=O)c2cc(Br)c(O)cc2O1

>  <path>  (78) 
/opt/xchem-fragalysis-2/maxwin/BulkDock/TARGETS/D68EV3C/aligned_files/7gqh-a/7gqh-a.pdb

>  <distance_score>  (78) 
None

>  <energy_score>  (78) 
None

>  <compound>  (78) 
FOZVJTHORLMHQD-UHFFFAOYSA-N

>  <compound_id>  (78) 
63

>  <target>  (78) 
D68EV3C

>  <tags>  (78) 
['BAD count', '[Other] upload_1 2025-02-11', '[Other] iter1_frags', 'hits', 'MEDIOCRE count', 'Main status', 'GOOD count']

>  <inspirations>  (78) 
None

>  <subsites>  (78) 
None

>  <reference>  (78) 


>  <observation_longname>  (78) 
7gqh_A_201_v1

>  <ConformerSites alias>  (78) 
1a - 7gp9/A/201

>  <CanonSites alias>  (78) 
1 - 7gp9/A/201/1

>  <CrystalformSites alias>  (78) 
F2b - 7gp9/A/201/1

>  <Quatassemblies alias>  (78) 
A1 - monomer

>  <Crystalforms alias>  (78) 
F2 - EVD68_Reference_20230131

>  <ConformerSites upload name>  (78) 
1a - 7gp9/A/201

>  <CanonSites upload name>  (78) 
1 - 7gp9/A/201/1

>  <CrystalformSites upload name>  (78) 
F2b - 7gp9/A/201/1

>  <Quatassemblies upload name>  (78) 
A1 - monomer

>  <Crystalforms upload name>  (78) 
F2 - EVD68_Reference_20230131

>  <ConformerSites short tag>  (78) 
1a - 7gp9/A/201

>  <CanonSites short tag>  (78) 
1 - 7gp9/A/201/1

>  <CrystalformSites short tag>  (78) 
F2b - 7gp9/A/201/1

>  <Quatassemblies short tag>  (78) 
A1 - monomer

>  <Crystalforms short tag>  (78) 
F2 - EVD68_Reference_20230131

>  <Centroid res>  (78) 
7gp9/A/163/A_v1

>  <Experiment code>  (78) 
7gqh

>  <Pose>  (78) 
7gqh-a

$$$$
7gnx-a
     RDKit          3D

 15 16  0  0  0  0  0  0  0  0999 V2000
  -18.2830  -13.0690    9.9310 C   0  0  0  0  0  0  0  0  0  0  0  0
  -19.5940  -16.4690   12.8780 C   0  0  0  0  0  0  0  0  0  0  0  0
  -18.2680  -16.5400   13.6320 C   0  0  0  0  0  0  0  0  0  0  0  0
  -17.7880  -17.9660   13.6930 C   0  0  0  0  0  0  0  0  0  0  0  0
  -19.9700  -18.8290   13.5770 C   0  0  0  0  0  0  0  0  0  0  0  0
  -19.2810  -13.9490   12.0450 N   0  0  0  0  0  0  0  0  0  0  0  0
  -19.1280  -14.1500   10.5930 C   0  0  0  0  0  0  0  0  0  0  0  0
  -20.1400  -14.3620   14.3370 O   0  0  0  0  0  0  0  0  0  0  0  0
  -20.4260  -14.1000    9.7970 C   0  0  0  0  0  0  0  0  0  0  0  0
  -19.9920  -13.8060    8.3680 C   0  0  0  0  0  0  0  0  0  0  0  0
  -18.6030  -13.1910    8.4500 C   0  0  0  0  0  0  0  0  0  0  0  0
  -20.5850  -17.4540   13.5000 C   0  0  0  0  0  0  0  0  0  0  0  0
  -21.5730  -14.8420   12.3770 O   0  0  0  0  0  0  0  0  0  0  0  0
  -18.7490  -18.8150   14.3200 O   0  0  0  0  0  0  0  0  0  0  0  0
  -20.2740  -14.8300   12.9880 S   0  0  0  0  0  0  0  0  0  0  0  0
 14  5  1  0
 14  4  1  0
  5 12  1  0
  4  3  1  0
 12  2  1  0
  3  2  1  0
  2 15  1  0
 15 13  2  0
 15  8  2  0
 15  6  1  0
  7  9  1  0
  7  6  1  0
  7  1  1  0
  9 10  1  0
 10 11  1  0
 11  1  1  0
M  END
>  <id>  (79) 
79

>  <inchikey>  (79) 
SVSOJZPVHKCFPK-UHFFFAOYSA-N

>  <alias>  (79) 
7gnx-a

>  <smiles>  (79) 
O=S(=O)(NC1CCCC1)C1CCOCC1

>  <path>  (79) 
/opt/xchem-fragalysis-2/maxwin/BulkDock/TARGETS/D68EV3C/aligned_files/7gnx-a/7gnx-a.pdb

>  <distance_score>  (79) 
None

>  <energy_score>  (79) 
None

>  <compound>  (79) 
SVSOJZPVHKCFPK-UHFFFAOYSA-N

>  <compound_id>  (79) 
64

>  <target>  (79) 
D68EV3C

>  <tags>  (79) 
['BAD count', '[Other] upload_1 2025-02-11', 'hits', 'MEDIOCRE count', 'Main status', 'GOOD count']

>  <inspirations>  (79) 
None

>  <subsites>  (79) 
None

>  <reference>  (79) 


>  <observation_longname>  (79) 
7gnx_A_201_v1

>  <ConformerSites alias>  (79) 
7a - B1081/A/308

>  <CanonSites alias>  (79) 
7 - B1081/A/308/1

>  <CrystalformSites alias>  (79) 
F2y - 7gnx/A/201/1

>  <Quatassemblies alias>  (79) 
A1 - monomer

>  <Crystalforms alias>  (79) 
F2 - EVD68_Reference_20230131

>  <ConformerSites upload name>  (79) 
7a - D68EV3CPROB-x1081/A/308

>  <CanonSites upload name>  (79) 
7 - D68EV3CPROB-x1081/A/308/1

>  <CrystalformSites upload name>  (79) 
F2y - 7gnx/A/201/1

>  <Quatassemblies upload name>  (79) 
A1 - monomer

>  <Crystalforms upload name>  (79) 
F2 - EVD68_Reference_20230131

>  <ConformerSites short tag>  (79) 
7a - B1081/A/308

>  <CanonSites short tag>  (79) 
7 - B1081/A/308/1

>  <CrystalformSites short tag>  (79) 
F2y - 7gnx/A/201/1

>  <Quatassemblies short tag>  (79) 
A1 - monomer

>  <Crystalforms short tag>  (79) 
F2 - EVD68_Reference_20230131

>  <Centroid res>  (79) 
D68EV3CPROB-x1081/B/91/A_v1

>  <Experiment code>  (79) 
7gnx

>  <Pose>  (79) 
7gnx-a

$$$$
7gqq-a
     RDKit          3D

  6  6  0  0  0  0  0  0  0  0999 V2000
   12.9420   -1.2780   16.3340 N   0  0  0  0  0  0  0  0  0  0  0  0
   11.5280   -1.2440   14.6320 N   0  0  0  0  0  0  0  0  0  0  0  0
   12.5370   -2.5520   16.0850 C   0  0  0  0  0  0  0  0  0  0  0  0
   11.6390   -2.5510   15.0140 C   0  0  0  0  0  0  0  0  0  0  0  0
   12.3190   -0.5220   15.4410 C   0  0  0  0  0  0  0  0  0  0  0  0
   13.1140   -3.9090   16.9900 Cl  0  0  0  0  0  0  0  0  0  0  0  0
  5  2  2  0
  5  1  1  0
  2  4  1  0
  1  3  1  0
  4  3  2  0
  3  6  1  0
M  END
>  <id>  (80) 
80

>  <inchikey>  (80) 
BQRBAXFOPZRMCU-UHFFFAOYSA-N

>  <alias>  (80) 
7gqq-a

>  <smiles>  (80) 
Clc1cnc[nH]1

>  <path>  (80) 
/opt/xchem-fragalysis-2/maxwin/BulkDock/TARGETS/D68EV3C/aligned_files/7gqq-a/7gqq-a.pdb

>  <distance_score>  (80) 
None

>  <energy_score>  (80) 
None

>  <compound>  (80) 
BQRBAXFOPZRMCU-UHFFFAOYSA-N

>  <compound_id>  (80) 
65

>  <target>  (80) 
D68EV3C

>  <tags>  (80) 
['BAD count', '[Other] upload_1 2025-02-11', 'hits', 'MEDIOCRE count', 'Main status', 'GOOD count']

>  <inspirations>  (80) 
None

>  <subsites>  (80) 
None

>  <reference>  (80) 


>  <observation_longname>  (80) 
7gqq_B_201_v1

>  <ConformerSites alias>  (80) 
2a - 7gon/B/201

>  <CanonSites alias>  (80) 
2 - 7gon/B/201/1

>  <CrystalformSites alias>  (80) 
F2j - 7gqb/B/201/1

>  <Quatassemblies alias>  (80) 
A1 - monomer

>  <Crystalforms alias>  (80) 
F2 - EVD68_Reference_20230131

>  <ConformerSites upload name>  (80) 
2a - 7gon/B/201

>  <CanonSites upload name>  (80) 
2 - 7gon/B/201/1

>  <CrystalformSites upload name>  (80) 
F2j - 7gqb/B/201/1

>  <Quatassemblies upload name>  (80) 
A1 - monomer

>  <Crystalforms upload name>  (80) 
F2 - EVD68_Reference_20230131

>  <ConformerSites short tag>  (80) 
2a - 7gon/B/201

>  <CanonSites short tag>  (80) 
2 - 7gon/B/201/1

>  <CrystalformSites short tag>  (80) 
F2j - 7gqb/B/201/1

>  <Quatassemblies short tag>  (80) 
A1 - monomer

>  <Crystalforms short tag>  (80) 
F2 - EVD68_Reference_20230131

>  <Centroid res>  (80) 
7gon/B/47/B_v1

>  <Experiment code>  (80) 
7gqq

>  <Pose>  (80) 
7gqq-a

$$$$
7gqo-a
     RDKit          3D

  6  6  0  0  0  0  0  0  0  0999 V2000
   12.1750   -1.2220   16.0790 N   0  0  0  0  0  0  0  0  0  0  0  0
   11.5700   -0.4560   15.1340 N   0  0  0  0  0  0  0  0  0  0  0  0
   12.6030   -2.3820   15.5280 C   0  0  0  0  0  0  0  0  0  0  0  0
   12.2690   -2.3720   14.2040 C   0  0  0  0  0  0  0  0  0  0  0  0
   11.6360   -1.1510   14.0060 C   0  0  0  0  0  0  0  0  0  0  0  0
   13.5940   -3.7790   16.6710 I   0  0  0  0  0  0  0  0  0  0  0  0
  5  2  2  0
  5  4  1  0
  2  1  1  0
  4  3  2  0
  1  3  1  0
  3  6  1  0
M  END
>  <id>  (81) 
81

>  <inchikey>  (81) 
RUKDVLFJSMVBLV-UHFFFAOYSA-N

>  <alias>  (81) 
7gqo-a

>  <smiles>  (81) 
Ic1ccn[nH]1

>  <path>  (81) 
/opt/xchem-fragalysis-2/maxwin/BulkDock/TARGETS/D68EV3C/aligned_files/7gqo-a/7gqo-a.pdb

>  <distance_score>  (81) 
None

>  <energy_score>  (81) 
None

>  <compound>  (81) 
RUKDVLFJSMVBLV-UHFFFAOYSA-N

>  <compound_id>  (81) 
66

>  <target>  (81) 
D68EV3C

>  <tags>  (81) 
['BAD count', '[Other] upload_1 2025-02-11', 'hits', 'MEDIOCRE count', 'Main status', 'GOOD count']

>  <inspirations>  (81) 
None

>  <subsites>  (81) 
None

>  <reference>  (81) 


>  <observation_longname>  (81) 
7gqo_B_201_v1

>  <ConformerSites alias>  (81) 
2a - 7gon/B/201

>  <CanonSites alias>  (81) 
2 - 7gon/B/201/1

>  <CrystalformSites alias>  (81) 
F2j - 7gqb/B/201/1

>  <Quatassemblies alias>  (81) 
A1 - monomer

>  <Crystalforms alias>  (81) 
F2 - EVD68_Reference_20230131

>  <ConformerSites upload name>  (81) 
2a - 7gon/B/201

>  <CanonSites upload name>  (81) 
2 - 7gon/B/201/1

>  <CrystalformSites upload name>  (81) 
F2j - 7gqb/B/201/1

>  <Quatassemblies upload name>  (81) 
A1 - monomer

>  <Crystalforms upload name>  (81) 
F2 - EVD68_Reference_20230131

>  <ConformerSites short tag>  (81) 
2a - 7gon/B/201

>  <CanonSites short tag>  (81) 
2 - 7gon/B/201/1

>  <CrystalformSites short tag>  (81) 
F2j - 7gqb/B/201/1

>  <Quatassemblies short tag>  (81) 
A1 - monomer

>  <Crystalforms short tag>  (81) 
F2 - EVD68_Reference_20230131

>  <Centroid res>  (81) 
7gon/B/47/B_v1

>  <Experiment code>  (81) 
7gqo

>  <Pose>  (81) 
7gqo-a

$$$$
7gnz-a
     RDKit          3D

 11 11  0  0  0  0  0  0  0  0999 V2000
  -12.1380  -23.7380   31.6870 C   0  0  0  0  0  0  0  0  0  0  0  0
  -10.4530  -25.5570   28.0700 C   0  0  0  0  0  0  0  0  0  0  0  0
  -11.6040  -24.6030   28.1560 C   0  0  0  0  0  0  0  0  0  0  0  0
  -11.6810  -24.6350   30.7000 C   0  0  0  0  0  0  0  0  0  0  0  0
  -10.8570  -25.6870   31.1130 C   0  0  0  0  0  0  0  0  0  0  0  0
  -10.9750  -25.0760   33.3030 C   0  0  0  0  0  0  0  0  0  0  0  0
  -11.7710  -23.9890   33.0070 C   0  0  0  0  0  0  0  0  0  0  0  0
  -13.0040  -22.5500   31.3480 C   0  0  0  0  0  0  0  0  0  0  0  0
  -12.1950  -24.5090   29.3780 N   0  0  0  0  0  0  0  0  0  0  0  0
  -10.5040  -25.9150   32.3820 N   0  0  0  0  0  0  0  0  0  0  0  0
  -12.0140  -23.9930   27.1670 O   0  0  0  0  0  0  0  0  0  0  0  0
  3  2  1  0
 11  3  2  0
  9  3  1  0
  4  9  1  0
  5  4  2  0
 10  5  1  0
  6 10  2  0
  7  6  1  0
  1  7  2  0
  8  1  1  0
  4  1  1  0
M  END
>  <id>  (82) 
82

>  <inchikey>  (82) 
WRPYDRDMRXJIJA-UHFFFAOYSA-N

>  <alias>  (82) 
7gnz-a

>  <smiles>  (82) 
CC(=O)Nc1cnccc1C

>  <path>  (82) 
/opt/xchem-fragalysis-2/maxwin/BulkDock/TARGETS/D68EV3C/aligned_files/7gnz-a/7gnz-a.pdb

>  <distance_score>  (82) 
None

>  <energy_score>  (82) 
None

>  <compound>  (82) 
WRPYDRDMRXJIJA-UHFFFAOYSA-N

>  <compound_id>  (82) 
67

>  <target>  (82) 
D68EV3C

>  <tags>  (82) 
['BAD count', '[Other] upload_1 2025-02-11', 'hits', 'MEDIOCRE count', 'Main status', 'GOOD count']

>  <inspirations>  (82) 
None

>  <subsites>  (82) 
None

>  <reference>  (82) 


>  <observation_longname>  (82) 
7gnz_B_201_v1

>  <ConformerSites alias>  (82) 
5a - 7gnz/B/201

>  <CanonSites alias>  (82) 
5 - B1120/A/308/1

>  <CrystalformSites alias>  (82) 
F2r - 7goj/A/201/1

>  <Quatassemblies alias>  (82) 
A1 - monomer

>  <Crystalforms alias>  (82) 
F2 - EVD68_Reference_20230131

>  <ConformerSites upload name>  (82) 
5a - 7gnz/B/201

>  <CanonSites upload name>  (82) 
5 - D68EV3CPROB-x1120/A/308/1

>  <CrystalformSites upload name>  (82) 
F2r - 7goj/A/201/1

>  <Quatassemblies upload name>  (82) 
A1 - monomer

>  <Crystalforms upload name>  (82) 
F2 - EVD68_Reference_20230131

>  <ConformerSites short tag>  (82) 
5a - 7gnz/B/201

>  <CanonSites short tag>  (82) 
5 - B1120/A/308/1

>  <CrystalformSites short tag>  (82) 
F2r - 7goj/A/201/1

>  <Quatassemblies short tag>  (82) 
A1 - monomer

>  <Crystalforms short tag>  (82) 
F2 - EVD68_Reference_20230131

>  <Centroid res>  (82) 
D68EV3CPROB-x1120/B/115/A_v1

>  <Experiment code>  (82) 
7gnz

>  <Pose>  (82) 
7gnz-a

$$$$
7gpt-a
     RDKit          3D

 13 13  0  0  0  0  0  0  0  0999 V2000
   19.5730   -1.5850   14.5740 C   0  0  0  0  0  0  0  0  0  0  0  0
   16.1290   -0.7690   12.7740 C   0  0  0  0  0  0  0  0  0  0  0  0
   15.9060   -0.6790   11.2750 C   0  0  0  0  0  0  0  0  0  0  0  0
   15.8580   -2.0650   10.6450 C   0  0  0  0  0  0  0  0  0  0  0  0
   17.2640   -1.6890   13.1120 N   0  0  0  0  0  0  0  0  0  0  0  0
   17.0770   -4.2340   10.2550 C   0  0  0  0  0  0  0  0  0  0  0  0
   18.0510   -5.2490   13.0980 O   0  0  0  0  0  0  0  0  0  0  0  0
   17.0880   -2.8990   10.9860 C   0  0  2  0  0  0  0  0  0  0  0  0
   17.2050   -3.0420   12.4970 C   0  0  1  0  0  0  0  0  0  0  0  0
   18.4230   -3.9080   12.7950 C   0  0  0  0  0  0  0  0  0  0  0  0
   17.3440   -2.6430   15.3670 O   0  0  0  0  0  0  0  0  0  0  0  0
   17.4480   -0.2040   15.0600 O   0  0  0  0  0  0  0  0  0  0  0  0
   17.8200   -1.5170   14.6300 S   0  0  0  0  0  0  0  0  0  0  0  0
  7 10  1  0
  8  6  1  6
  9 10  1  6
  9  8  1  0
  9  5  1  0
  8  4  1  0
 11 13  2  0
  4  3  1  0
  5 13  1  0
  5  2  1  0
  1 13  1  0
 13 12  2  0
  2  3  1  0
M  END
>  <id>  (83) 
83

>  <inchikey>  (83) 
JACFLUHHMHHDAJ-JGVFFNPUSA-N

>  <alias>  (83) 
7gpt-a

>  <smiles>  (83) 
C[C@H]1CCCN(S(C)(=O)=O)[C@@H]1CO

>  <path>  (83) 
/opt/xchem-fragalysis-2/maxwin/BulkDock/TARGETS/D68EV3C/aligned_files/7gpt-a/7gpt-a.pdb

>  <distance_score>  (83) 
None

>  <energy_score>  (83) 
None

>  <compound>  (83) 
JACFLUHHMHHDAJ-UHFFFAOYSA-N

>  <compound_id>  (83) 
68

>  <target>  (83) 
D68EV3C

>  <tags>  (83) 
['BAD count', '[Other] upload_1 2025-02-11', 'hits', 'MEDIOCRE count', 'Main status', 'GOOD count']

>  <inspirations>  (83) 
None

>  <subsites>  (83) 
None

>  <reference>  (83) 


>  <observation_longname>  (83) 
7gpt_A_201_v1

>  <ConformerSites alias>  (83) 
2a - 7gon/B/201

>  <CanonSites alias>  (83) 
2 - 7gon/B/201/1

>  <CrystalformSites alias>  (83) 
F2i - 7gpu/A/201/1

>  <Quatassemblies alias>  (83) 
A1 - monomer

>  <Crystalforms alias>  (83) 
F2 - EVD68_Reference_20230131

>  <ConformerSites upload name>  (83) 
2a - 7gon/B/201

>  <CanonSites upload name>  (83) 
2 - 7gon/B/201/1

>  <CrystalformSites upload name>  (83) 
F2i - 7gpu/A/201/1

>  <Quatassemblies upload name>  (83) 
A1 - monomer

>  <Crystalforms upload name>  (83) 
F2 - EVD68_Reference_20230131

>  <ConformerSites short tag>  (83) 
2a - 7gon/B/201

>  <CanonSites short tag>  (83) 
2 - 7gon/B/201/1

>  <CrystalformSites short tag>  (83) 
F2i - 7gpu/A/201/1

>  <Quatassemblies short tag>  (83) 
A1 - monomer

>  <Crystalforms short tag>  (83) 
F2 - EVD68_Reference_20230131

>  <Centroid res>  (83) 
7gon/B/47/B_v1

>  <Experiment code>  (83) 
7gpt

>  <Pose>  (83) 
7gpt-a

$$$$
7gq0-a
     RDKit          3D

 12 11  0  0  0  0  0  0  0  0999 V2000
   -3.9300   -0.9140    7.5960 C   0  0  0  0  0  0  0  0  0  0  0  0
   -4.3960   -2.5650    5.8790 C   0  0  0  0  0  0  0  0  0  0  0  0
   -5.7830   -2.9910    6.0980 C   0  0  0  0  0  0  0  0  0  0  0  0
   -6.8910   -3.2580    6.3860 C   0  0  0  0  0  0  0  0  0  0  0  0
   -6.3640   -0.4320    7.6530 N   0  0  0  0  0  0  0  0  0  0  0  0
   -4.1320   -1.2030    6.3150 N   0  0  0  0  0  0  0  0  0  0  0  0
   -5.1790   -0.7220    8.4270 C   0  0  0  0  0  0  0  0  0  0  0  0
   -6.9980    1.8200    7.1200 C   0  0  0  0  0  0  0  0  0  0  0  0
   -7.1560    0.5870    7.9600 C   0  0  0  0  0  0  0  0  0  0  0  0
   -7.9730    0.5190    8.8730 O   0  0  0  0  0  0  0  0  0  0  0  0
   -2.8170   -0.8030    8.0970 O   0  0  0  0  0  0  0  0  0  0  0  0
   -8.5780   -3.6050    6.9010 Br  0  0  0  0  0  0  0  0  0  0  0  0
  8  9  1  0
 10  9  2  0
  9  5  1  0
  5  7  1  0
  7  1  1  0
 11  1  2  0
  1  6  1  0
  6  2  1  0
  2  3  1  0
  3  4  3  0
  4 12  1  0
M  END
>  <id>  (84) 
84

>  <inchikey>  (84) 
VNYCHSVZFAMMQB-UHFFFAOYSA-N

>  <alias>  (84) 
7gq0-a

>  <smiles>  (84) 
CC(=O)NCC(=O)NCC#CBr

>  <path>  (84) 
/opt/xchem-fragalysis-2/maxwin/BulkDock/TARGETS/D68EV3C/aligned_files/7gq0-a/7gq0-a.pdb

>  <distance_score>  (84) 
None

>  <energy_score>  (84) 
None

>  <compound>  (84) 
VNYCHSVZFAMMQB-UHFFFAOYSA-N

>  <compound_id>  (84) 
69

>  <target>  (84) 
D68EV3C

>  <tags>  (84) 
['BAD count', '[Other] upload_1 2025-02-11', 'hits', 'MEDIOCRE count', 'Main status', 'GOOD count']

>  <inspirations>  (84) 
None

>  <subsites>  (84) 
None

>  <reference>  (84) 


>  <observation_longname>  (84) 
7gq0_B_201_v1

>  <ConformerSites alias>  (84) 
3a - 7gpw/B/202

>  <CanonSites alias>  (84) 
3 - 7gpw/B/202/1

>  <CrystalformSites alias>  (84) 
F2l - 7go5/B/401/1

>  <Quatassemblies alias>  (84) 
A1 - monomer

>  <Crystalforms alias>  (84) 
F2 - EVD68_Reference_20230131

>  <ConformerSites upload name>  (84) 
3a - 7gpw/B/202

>  <CanonSites upload name>  (84) 
3 - 7gpw/B/202/1

>  <CrystalformSites upload name>  (84) 
F2l - 7go5/B/401/1

>  <Quatassemblies upload name>  (84) 
A1 - monomer

>  <Crystalforms upload name>  (84) 
F2 - EVD68_Reference_20230131

>  <ConformerSites short tag>  (84) 
3a - 7gpw/B/202

>  <CanonSites short tag>  (84) 
3 - 7gpw/B/202/1

>  <CrystalformSites short tag>  (84) 
F2l - 7go5/B/401/1

>  <Quatassemblies short tag>  (84) 
A1 - monomer

>  <Crystalforms short tag>  (84) 
F2 - EVD68_Reference_20230131

>  <Centroid res>  (84) 
7gpw/B/74/B_v1

>  <Experiment code>  (84) 
7gq0

>  <Pose>  (84) 
7gq0-a

$$$$
7gq9-a
     RDKit          3D

 14 15  0  0  0  0  0  0  0  0999 V2000
    3.1640  -15.4700    7.7720 C   0  0  0  0  0  0  0  0  0  0  0  0
    2.0930  -15.0990    6.9590 C   0  0  0  0  0  0  0  0  0  0  0  0
    1.9990  -13.8150    6.4510 C   0  0  0  0  0  0  0  0  0  0  0  0
    3.2040  -16.8070    8.4130 C   0  0  0  0  0  0  0  0  0  0  0  0
    4.3120  -17.5570    8.4390 C   0  0  0  0  0  0  0  0  0  0  0  0
    1.9090  -18.8820    8.8700 C   0  0  0  0  0  0  0  0  0  0  0  0
    3.0850  -19.4380    9.5270 N   0  0  0  0  0  0  0  0  0  0  0  0
    1.9040  -11.0270    5.6680 C   0  0  0  0  0  0  0  0  0  0  0  0
    2.9680  -11.5450    6.4740 O   0  0  0  0  0  0  0  0  0  0  0  0
    2.9800  -12.8860    6.7480 C   0  0  0  0  0  0  0  0  0  0  0  0
    1.9200  -17.3660    9.0180 C   0  0  0  0  0  0  0  0  0  0  0  0
    4.0860  -13.2530    7.4980 C   0  0  0  0  0  0  0  0  0  0  0  0
    4.1740  -14.5320    8.0090 C   0  0  0  0  0  0  0  0  0  0  0  0
    4.3490  -18.9380    8.9930 C   0  0  0  0  0  0  0  0  0  0  0  0
  7 14  1  0
  7  6  1  0
 14  5  1  0
  6 11  1  0
  5  4  2  0
 11  4  1  0
  4  1  1  0
  1  2  2  0
  1 13  1  0
  2  3  1  0
 13 12  2  0
  3 10  2  0
 12 10  1  0
 10  9  1  0
  9  8  1  0
M  END
>  <id>  (85) 
85

>  <inchikey>  (85) 
XWENGDIACIBQQL-UHFFFAOYSA-N

>  <alias>  (85) 
7gq9-a

>  <smiles>  (85) 
COc1ccc(C2=CCNCC2)cc1

>  <path>  (85) 
/opt/xchem-fragalysis-2/maxwin/BulkDock/TARGETS/D68EV3C/aligned_files/7gq9-a/7gq9-a.pdb

>  <distance_score>  (85) 
None

>  <energy_score>  (85) 
None

>  <compound>  (85) 
XWENGDIACIBQQL-UHFFFAOYSA-N

>  <compound_id>  (85) 
70

>  <target>  (85) 
D68EV3C

>  <tags>  (85) 
['BAD count', '[Other] upload_1 2025-02-11', 'hits', 'MEDIOCRE count', 'Main status', 'GOOD count']

>  <inspirations>  (85) 
None

>  <subsites>  (85) 
None

>  <reference>  (85) 


>  <observation_longname>  (85) 
7gq9_A_201_v1

>  <ConformerSites alias>  (85) 
9a - 7gq1/B/202

>  <CanonSites alias>  (85) 
9 - 7gq1/B/202/1

>  <CrystalformSites alias>  (85) 
F2ag - 7gq9/A/201/1

>  <Quatassemblies alias>  (85) 
A1 - monomer

>  <Crystalforms alias>  (85) 
F2 - EVD68_Reference_20230131

>  <ConformerSites upload name>  (85) 
9a - 7gq1/B/202

>  <CanonSites upload name>  (85) 
9 - 7gq1/B/202/1

>  <CrystalformSites upload name>  (85) 
F2ag - 7gq9/A/201/1

>  <Quatassemblies upload name>  (85) 
A1 - monomer

>  <Crystalforms upload name>  (85) 
F2 - EVD68_Reference_20230131

>  <ConformerSites short tag>  (85) 
9a - 7gq1/B/202

>  <CanonSites short tag>  (85) 
9 - 7gq1/B/202/1

>  <CrystalformSites short tag>  (85) 
F2ag - 7gq9/A/201/1

>  <Quatassemblies short tag>  (85) 
A1 - monomer

>  <Crystalforms short tag>  (85) 
F2 - EVD68_Reference_20230131

>  <Centroid res>  (85) 
7gq1/B/14/B_v1

>  <Experiment code>  (85) 
7gq9

>  <Pose>  (85) 
7gq9-a

$$$$
7gpi-a
     RDKit          3D

 15 15  0  0  0  0  0  0  0  0999 V2000
   12.1700   -1.1810   13.7970 N   0  0  0  0  0  0  0  0  0  0  0  0
   13.6750   -3.2560   17.0720 C   0  0  0  0  0  0  0  0  0  0  0  0
   14.3540   -2.1520   16.5860 C   0  0  0  0  0  0  0  0  0  0  0  0
   13.8460   -1.4600   15.5040 C   0  0  0  0  0  0  0  0  0  0  0  0
   12.6550   -1.8510   14.8890 C   0  0  0  0  0  0  0  0  0  0  0  0
   12.0020   -2.9540   15.4180 C   0  0  0  0  0  0  0  0  0  0  0  0
   17.1480   -4.5830   18.8640 N   0  0  0  0  0  0  0  0  0  0  0  0
   16.5370   -4.6610   20.1920 C   0  0  0  0  0  0  0  0  0  0  0  0
   17.0220   -4.6600   16.6230 O   0  0  0  0  0  0  0  0  0  0  0  0
   18.5830   -4.3130   18.8800 C   0  0  0  0  0  0  0  0  0  0  0  0
   16.4740   -4.7480   17.7110 C   0  0  0  0  0  0  0  0  0  0  0  0
   15.0010   -5.0780   17.7660 C   0  0  0  0  0  0  0  0  0  0  0  0
   12.4840   -3.6700   16.4900 C   0  0  0  0  0  0  0  0  0  0  0  0
   10.8310   -3.3170   14.8560 F   0  0  0  0  0  0  0  0  0  0  0  0
   14.2320   -3.9420   18.1150 O   0  0  0  0  0  0  0  0  0  0  0  0
  1  5  1  0
  4  5  2  0
  4  3  1  0
  5  6  1  0
  3  2  2  0
  9 11  2  0
  6 14  1  0
  6 13  2  0
 10  7  1  0
  2 13  1  0
  2 15  1  0
 11  7  1  0
 11 12  1  0
  7  8  1  0
 15 12  1  0
M  END
>  <id>  (86) 
86

>  <inchikey>  (86) 
VNDZSXJKUDTTMP-UHFFFAOYSA-N

>  <alias>  (86) 
7gpi-a

>  <smiles>  (86) 
CN(C)C(=O)COc1ccc(N)c(F)c1

>  <path>  (86) 
/opt/xchem-fragalysis-2/maxwin/BulkDock/TARGETS/D68EV3C/aligned_files/7gpi-a/7gpi-a.pdb

>  <distance_score>  (86) 
None

>  <energy_score>  (86) 
None

>  <compound>  (86) 
VNDZSXJKUDTTMP-UHFFFAOYSA-N

>  <compound_id>  (86) 
71

>  <target>  (86) 
D68EV3C

>  <tags>  (86) 
['BAD count', '[Other] upload_1 2025-02-11', 'hits', 'MEDIOCRE count', 'Main status', 'GOOD count']

>  <inspirations>  (86) 
None

>  <subsites>  (86) 
None

>  <reference>  (86) 


>  <observation_longname>  (86) 
7gpi_B_201_v1

>  <ConformerSites alias>  (86) 
2a - 7gon/B/201

>  <CanonSites alias>  (86) 
2 - 7gon/B/201/1

>  <CrystalformSites alias>  (86) 
F2j - 7gqb/B/201/1

>  <Quatassemblies alias>  (86) 
A1 - monomer

>  <Crystalforms alias>  (86) 
F2 - EVD68_Reference_20230131

>  <ConformerSites upload name>  (86) 
2a - 7gon/B/201

>  <CanonSites upload name>  (86) 
2 - 7gon/B/201/1

>  <CrystalformSites upload name>  (86) 
F2j - 7gqb/B/201/1

>  <Quatassemblies upload name>  (86) 
A1 - monomer

>  <Crystalforms upload name>  (86) 
F2 - EVD68_Reference_20230131

>  <ConformerSites short tag>  (86) 
2a - 7gon/B/201

>  <CanonSites short tag>  (86) 
2 - 7gon/B/201/1

>  <CrystalformSites short tag>  (86) 
F2j - 7gqb/B/201/1

>  <Quatassemblies short tag>  (86) 
A1 - monomer

>  <Crystalforms short tag>  (86) 
F2 - EVD68_Reference_20230131

>  <Centroid res>  (86) 
7gon/B/47/B_v1

>  <Experiment code>  (86) 
7gpi

>  <Pose>  (86) 
7gpi-a

$$$$
7gpr-a
     RDKit          3D

 16 17  0  0  0  0  0  0  0  0999 V2000
  -14.2420  -25.0480   14.7670 C   0  0  0  0  0  0  0  0  0  0  0  0
  -13.1000  -25.2360   14.0080 C   0  0  0  0  0  0  0  0  0  0  0  0
  -12.0160  -25.9520   14.5100 C   0  0  0  0  0  0  0  0  0  0  0  0
  -10.7520  -26.1230   13.6550 C   0  0  1  0  0  0  0  0  0  0  0  0
  -10.3140  -24.7510   13.1040 C   0  0  0  0  0  0  0  0  0  0  0  0
   -9.5520  -26.7300   14.4310 C   0  0  0  0  0  0  0  0  0  0  0  0
   -9.1970  -28.0270   13.8600 N   0  0  0  0  0  0  0  0  0  0  0  0
  -15.5670  -25.3050   16.8970 C   0  0  0  0  0  0  0  0  0  0  0  0
  -10.1840  -23.8500   14.0760 O   0  0  0  0  0  0  0  0  0  0  0  0
  -14.3460  -25.5650   16.0500 C   0  0  0  0  0  0  0  0  0  0  0  0
   -9.6430  -27.9610   12.4700 C   0  0  0  0  0  0  0  0  0  0  0  0
  -10.9420  -27.1520   12.5050 C   0  0  0  0  0  0  0  0  0  0  0  0
  -13.2740  -26.2950   16.5440 C   0  0  0  0  0  0  0  0  0  0  0  0
  -12.1300  -26.4890   15.7910 C   0  0  0  0  0  0  0  0  0  0  0  0
   -9.3550  -22.6970   13.7830 C   0  0  0  0  0  0  0  0  0  0  0  0
  -10.1030  -24.5160   11.9480 O   0  0  0  0  0  0  0  0  0  0  0  0
  7 11  1  0
  7  6  1  0
 11 12  1  0
 12  4  1  0
  6  4  1  0
 14 13  2  0
 14  3  1  0
  4  3  1  0
  4  5  1  6
 13 10  1  0
  3  2  2  0
 10  8  1  0
 10  1  2  0
  2  1  1  0
  5 16  2  0
  5  9  1  0
  9 15  1  0
M  END
>  <id>  (87) 
87

>  <inchikey>  (87) 
DZYXVONDWNODKG-ZDUSSCGKSA-N

>  <alias>  (87) 
7gpr-a

>  <smiles>  (87) 
COC(=O)[C@@]1(c2ccc(C)cc2)CCNC1

>  <path>  (87) 
/opt/xchem-fragalysis-2/maxwin/BulkDock/TARGETS/D68EV3C/aligned_files/7gpr-a/7gpr-a.pdb

>  <distance_score>  (87) 
None

>  <energy_score>  (87) 
None

>  <compound>  (87) 
DZYXVONDWNODKG-UHFFFAOYSA-N

>  <compound_id>  (87) 
72

>  <target>  (87) 
D68EV3C

>  <tags>  (87) 
['BAD count', '[Other] upload_1 2025-02-11', 'hits', 'MEDIOCRE count', 'Main status', 'GOOD count']

>  <inspirations>  (87) 
None

>  <subsites>  (87) 
None

>  <reference>  (87) 


>  <observation_longname>  (87) 
7gpr_A_201_v1

>  <ConformerSites alias>  (87) 
4a - 7gp7/A/201

>  <CanonSites alias>  (87) 
4 - 7gp7/A/201/1

>  <CrystalformSites alias>  (87) 
F2q - 7gp7/A/201/1

>  <Quatassemblies alias>  (87) 
A1 - monomer

>  <Crystalforms alias>  (87) 
F2 - EVD68_Reference_20230131

>  <ConformerSites upload name>  (87) 
4a - 7gp7/A/201

>  <CanonSites upload name>  (87) 
4 - 7gp7/A/201/1

>  <CrystalformSites upload name>  (87) 
F2q - 7gp7/A/201/1

>  <Quatassemblies upload name>  (87) 
A1 - monomer

>  <Crystalforms upload name>  (87) 
F2 - EVD68_Reference_20230131

>  <ConformerSites short tag>  (87) 
4a - 7gp7/A/201

>  <CanonSites short tag>  (87) 
4 - 7gp7/A/201/1

>  <CrystalformSites short tag>  (87) 
F2q - 7gp7/A/201/1

>  <Quatassemblies short tag>  (87) 
A1 - monomer

>  <Crystalforms short tag>  (87) 
F2 - EVD68_Reference_20230131

>  <Centroid res>  (87) 
7gp7/A/6/A_v1

>  <Experiment code>  (87) 
7gpr

>  <Pose>  (87) 
7gpr-a

$$$$
7gqc-a
     RDKit          3D

 14 15  0  0  0  0  0  0  0  0999 V2000
  -10.3260  -23.2550   31.6030 C   0  0  0  0  0  0  0  0  0  0  0  0
  -10.9520  -22.3780   32.4820 C   0  0  0  0  0  0  0  0  0  0  0  0
  -10.5250  -22.2760   33.7990 C   0  0  0  0  0  0  0  0  0  0  0  0
   -9.4770  -23.0450   34.2510 C   0  0  0  0  0  0  0  0  0  0  0  0
   -8.8430  -23.9170   33.3870 C   0  0  0  0  0  0  0  0  0  0  0  0
  -11.1060  -22.3950   29.4400 N   0  0  0  0  0  0  0  0  0  0  0  0
  -11.7020  -24.9570   26.7630 C   0  0  0  0  0  0  0  0  0  0  0  0
  -11.1370  -26.1680   26.7010 O   0  0  0  0  0  0  0  0  0  0  0  0
  -11.4340  -24.1780   27.9830 C   0  0  0  0  0  0  0  0  0  0  0  0
  -11.4500  -22.8400   28.1840 C   0  0  0  0  0  0  0  0  0  0  0  0
  -10.8120  -23.4020   30.2220 C   0  0  0  0  0  0  0  0  0  0  0  0
   -9.2600  -24.0200   32.0660 C   0  0  0  0  0  0  0  0  0  0  0  0
  -12.4190  -24.4880   25.8710 O   0  0  0  0  0  0  0  0  0  0  0  0
  -10.9730  -24.9580   29.4680 S   0  0  0  0  0  0  0  0  0  0  0  0
 13  7  2  0
 10  9  2  0
 10  6  1  0
  7  8  1  0
  7  9  1  0
  9 14  1  0
  6 11  2  0
 11 14  1  0
 11  1  1  0
  1  2  2  0
  1 12  1  0
  2  3  1  0
 12  5  2  0
  3  4  2  0
  5  4  1  0
M  END
>  <id>  (88) 
88

>  <inchikey>  (88) 
LCALUFNLWHYTKX-UHFFFAOYSA-N

>  <alias>  (88) 
7gqc-a

>  <smiles>  (88) 
O=C(O)c1cnc(-c2ccccc2)s1

>  <path>  (88) 
/opt/xchem-fragalysis-2/maxwin/BulkDock/TARGETS/D68EV3C/aligned_files/7gqc-a/7gqc-a.pdb

>  <distance_score>  (88) 
None

>  <energy_score>  (88) 
None

>  <compound>  (88) 
LCALUFNLWHYTKX-UHFFFAOYSA-N

>  <compound_id>  (88) 
73

>  <target>  (88) 
D68EV3C

>  <tags>  (88) 
['BAD count', '[Other] upload_1 2025-02-11', 'hits', 'MEDIOCRE count', 'Main status', 'GOOD count']

>  <inspirations>  (88) 
None

>  <subsites>  (88) 
None

>  <reference>  (88) 


>  <observation_longname>  (88) 
7gqc_B_201_v1

>  <ConformerSites alias>  (88) 
4a - 7gp7/A/201

>  <CanonSites alias>  (88) 
4 - 7gp7/A/201/1

>  <CrystalformSites alias>  (88) 
F2p - 7gp4/A/201/1

>  <Quatassemblies alias>  (88) 
A1 - monomer

>  <Crystalforms alias>  (88) 
F2 - EVD68_Reference_20230131

>  <ConformerSites upload name>  (88) 
4a - 7gp7/A/201

>  <CanonSites upload name>  (88) 
4 - 7gp7/A/201/1

>  <CrystalformSites upload name>  (88) 
F2p - 7gp4/A/201/1

>  <Quatassemblies upload name>  (88) 
A1 - monomer

>  <Crystalforms upload name>  (88) 
F2 - EVD68_Reference_20230131

>  <ConformerSites short tag>  (88) 
4a - 7gp7/A/201

>  <CanonSites short tag>  (88) 
4 - 7gp7/A/201/1

>  <CrystalformSites short tag>  (88) 
F2p - 7gp4/A/201/1

>  <Quatassemblies short tag>  (88) 
A1 - monomer

>  <Crystalforms short tag>  (88) 
F2 - EVD68_Reference_20230131

>  <Centroid res>  (88) 
7gp7/A/6/A_v1

>  <Experiment code>  (88) 
7gqc

>  <Pose>  (88) 
7gqc-a

$$$$
7go5-c
     RDKit          3D

 12 13  0  0  0  0  0  0  0  0999 V2000
    6.3350  -19.0930   31.2050 C   0  0  0  0  0  0  0  0  0  0  0  0
    5.2260  -19.6100   32.0630 C   0  0  0  0  0  0  0  0  0  0  0  0
    4.2200  -20.3350   31.5830 C   0  0  0  0  0  0  0  0  0  0  0  0
    4.1530  -20.6570   30.2110 C   0  0  0  0  0  0  0  0  0  0  0  0
    3.2370  -21.5530   29.6670 C   0  0  0  0  0  0  0  0  0  0  0  0
    3.3140  -21.8260   28.3200 C   0  0  0  0  0  0  0  0  0  0  0  0
    6.0810  -19.2010   29.7950 O   0  0  0  0  0  0  0  0  0  0  0  0
    4.2300  -21.2930   27.5040 C   0  0  0  0  0  0  0  0  0  0  0  0
    5.1130  -20.4230   28.0700 C   0  0  0  0  0  0  0  0  0  0  0  0
    5.1130  -20.0790   29.3770 C   0  0  0  0  0  0  0  0  0  0  0  0
    2.4560  -22.6850   27.7840 F   0  0  0  0  0  0  0  0  0  0  0  0
    6.0330  -19.9270   27.3240 F   0  0  0  0  0  0  0  0  0  0  0  0
 12  9  1  0
  9  8  2  0
  9 10  1  0
  8  6  1  0
  7 10  1  0
  7  1  1  0
 10  4  2  0
  1  2  1  0
  6 11  1  0
  6  5  2  0
  4  5  1  0
  4  3  1  0
  2  3  2  0
M  END
>  <id>  (89) 
89

>  <inchikey>  (89) 
DRQKJKGKLYCHHB-UHFFFAOYSA-N

>  <alias>  (89) 
7go5-c

>  <smiles>  (89) 
Fc1cc(F)c2c(c1)C=CCO2

>  <path>  (89) 
/opt/xchem-fragalysis-2/maxwin/BulkDock/TARGETS/D68EV3C/aligned_files/7go5-c/7go5-c.pdb

>  <distance_score>  (89) 
None

>  <energy_score>  (89) 
None

>  <compound>  (89) 
DRQKJKGKLYCHHB-UHFFFAOYSA-N

>  <compound_id>  (89) 
74

>  <target>  (89) 
D68EV3C

>  <tags>  (89) 
['BAD count', '[Other] upload_1 2025-02-11', 'hits', 'MEDIOCRE count', 'Main status', 'GOOD count']

>  <inspirations>  (89) 
None

>  <subsites>  (89) 
None

>  <reference>  (89) 


>  <observation_longname>  (89) 
7go5_A_201_v1

>  <ConformerSites alias>  (89) 
13a - 7go5/A/201

>  <CanonSites alias>  (89) 
13 - 7go5/A/201/1

>  <CrystalformSites alias>  (89) 
F2aj - 7go5/A/201/1

>  <Quatassemblies alias>  (89) 
A1 - monomer

>  <Crystalforms alias>  (89) 
F2 - EVD68_Reference_20230131

>  <ConformerSites upload name>  (89) 
13a - 7go5/A/201

>  <CanonSites upload name>  (89) 
13 - 7go5/A/201/1

>  <CrystalformSites upload name>  (89) 
F2aj - 7go5/A/201/1

>  <Quatassemblies upload name>  (89) 
A1 - monomer

>  <Crystalforms upload name>  (89) 
F2 - EVD68_Reference_20230131

>  <ConformerSites short tag>  (89) 
13a - 7go5/A/201

>  <CanonSites short tag>  (89) 
13 - 7go5/A/201/1

>  <CrystalformSites short tag>  (89) 
F2aj - 7go5/A/201/1

>  <Quatassemblies short tag>  (89) 
A1 - monomer

>  <Crystalforms short tag>  (89) 
F2 - EVD68_Reference_20230131

>  <Centroid res>  (89) 
7go5/A/112/A_v1

>  <Experiment code>  (89) 
7go5

>  <Pose>  (89) 
7go5-c

$$$$
7go5-b
     RDKit          3D

 12 13  0  0  0  0  0  0  0  0999 V2000
  -11.4770  -32.4590   25.1350 C   0  0  0  0  0  0  0  0  0  0  0  0
  -11.6480  -33.5720   24.1670 C   0  0  0  0  0  0  0  0  0  0  0  0
  -10.6970  -34.4750   23.9670 C   0  0  0  0  0  0  0  0  0  0  0  0
   -9.4600  -34.3950   24.6810 C   0  0  0  0  0  0  0  0  0  0  0  0
   -8.3840  -35.2590   24.4570 C   0  0  0  0  0  0  0  0  0  0  0  0
   -7.1540  -34.9310   24.9800 C   0  0  0  0  0  0  0  0  0  0  0  0
  -10.3170  -32.5160   25.9730 O   0  0  0  0  0  0  0  0  0  0  0  0
   -6.9140  -33.7960   25.6810 C   0  0  0  0  0  0  0  0  0  0  0  0
   -7.9860  -32.9910   25.9110 C   0  0  0  0  0  0  0  0  0  0  0  0
   -9.2700  -33.2750   25.4850 C   0  0  0  0  0  0  0  0  0  0  0  0
   -6.1270  -35.7950   24.8180 F   0  0  0  0  0  0  0  0  0  0  0  0
   -7.7710  -31.8640   26.5690 F   0  0  0  0  0  0  0  0  0  0  0  0
 12  9  1  0
  9  8  2  0
  9 10  1  0
  8  6  1  0
  7 10  1  0
  7  1  1  0
 10  4  2  0
  1  2  1  0
  6 11  1  0
  6  5  2  0
  4  5  1  0
  4  3  1  0
  2  3  2  0
M  END
>  <id>  (90) 
90

>  <inchikey>  (90) 
DRQKJKGKLYCHHB-UHFFFAOYSA-N

>  <alias>  (90) 
7go5-b

>  <smiles>  (90) 
Fc1cc(F)c2c(c1)C=CCO2

>  <path>  (90) 
/opt/xchem-fragalysis-2/maxwin/BulkDock/TARGETS/D68EV3C/aligned_files/7go5-b/7go5-b.pdb

>  <distance_score>  (90) 
None

>  <energy_score>  (90) 
None

>  <compound>  (90) 
DRQKJKGKLYCHHB-UHFFFAOYSA-N

>  <compound_id>  (90) 
74

>  <target>  (90) 
D68EV3C

>  <tags>  (90) 
['BAD count', '[Other] upload_1 2025-02-11', 'hits', 'MEDIOCRE count', 'Main status', 'GOOD count']

>  <inspirations>  (90) 
None

>  <subsites>  (90) 
None

>  <reference>  (90) 


>  <observation_longname>  (90) 
7go5_A_202_v1

>  <ConformerSites alias>  (90) 
8a - 7goa/A/201

>  <CanonSites alias>  (90) 
8 - 7goa/A/201/1

>  <CrystalformSites alias>  (90) 
F2ad - 7gpy/B/201/1

>  <Quatassemblies alias>  (90) 
A1 - monomer

>  <Crystalforms alias>  (90) 
F2 - EVD68_Reference_20230131

>  <ConformerSites upload name>  (90) 
8a - 7goa/A/201

>  <CanonSites upload name>  (90) 
8 - 7goa/A/201/1

>  <CrystalformSites upload name>  (90) 
F2ad - 7gpy/B/201/1

>  <Quatassemblies upload name>  (90) 
A1 - monomer

>  <Crystalforms upload name>  (90) 
F2 - EVD68_Reference_20230131

>  <ConformerSites short tag>  (90) 
8a - 7goa/A/201

>  <CanonSites short tag>  (90) 
8 - 7goa/A/201/1

>  <CrystalformSites short tag>  (90) 
F2ad - 7gpy/B/201/1

>  <Quatassemblies short tag>  (90) 
A1 - monomer

>  <Crystalforms short tag>  (90) 
F2 - EVD68_Reference_20230131

>  <Centroid res>  (90) 
7goa/A/0/A_v1

>  <Experiment code>  (90) 
7go5

>  <Pose>  (90) 
7go5-b

$$$$
7go5-a
     RDKit          3D

 12 13  0  0  0  0  0  0  0  0999 V2000
   -8.1020    1.3380    8.2080 C   0  0  0  0  0  0  0  0  0  0  0  0
   -8.8380    0.0440    8.2670 C   0  0  0  0  0  0  0  0  0  0  0  0
   -8.2440   -1.1130    7.9960 C   0  0  0  0  0  0  0  0  0  0  0  0
   -6.8490   -1.1540    7.6370 C   0  0  0  0  0  0  0  0  0  0  0  0
   -6.2040   -2.3120    7.1990 C   0  0  0  0  0  0  0  0  0  0  0  0
   -4.8520   -2.2630    6.9660 C   0  0  0  0  0  0  0  0  0  0  0  0
   -6.6700    1.2470    8.0260 O   0  0  0  0  0  0  0  0  0  0  0  0
   -4.0770   -1.1530    7.1910 C   0  0  0  0  0  0  0  0  0  0  0  0
   -4.7280   -0.0250    7.6230 C   0  0  0  0  0  0  0  0  0  0  0  0
   -6.1000    0.0200    7.8060 C   0  0  0  0  0  0  0  0  0  0  0  0
   -4.2600   -3.3500    6.4130 F   0  0  0  0  0  0  0  0  0  0  0  0
   -3.9980    1.0680    7.9610 F   0  0  0  0  0  0  0  0  0  0  0  0
 12  9  1  0
  9  8  2  0
  9 10  1  0
  8  6  1  0
  7 10  1  0
  7  1  1  0
 10  4  2  0
  1  2  1  0
  6 11  1  0
  6  5  2  0
  4  5  1  0
  4  3  1  0
  2  3  2  0
M  END
>  <id>  (91) 
91

>  <inchikey>  (91) 
DRQKJKGKLYCHHB-UHFFFAOYSA-N

>  <alias>  (91) 
7go5-a

>  <smiles>  (91) 
Fc1cc(F)c2c(c1)C=CCO2

>  <path>  (91) 
/opt/xchem-fragalysis-2/maxwin/BulkDock/TARGETS/D68EV3C/aligned_files/7go5-a/7go5-a_hippo.pdb

>  <distance_score>  (91) 
None

>  <energy_score>  (91) 
None

>  <compound>  (91) 
DRQKJKGKLYCHHB-UHFFFAOYSA-N

>  <compound_id>  (91) 
74

>  <target>  (91) 
D68EV3C

>  <tags>  (91) 
['BAD count', '[Other] upload_1 2025-02-11', 'hits', 'MEDIOCRE count', 'Main status', 'GOOD count']

>  <inspirations>  (91) 
None

>  <subsites>  (91) 
None

>  <reference>  (91) 


>  <observation_longname>  (91) 
7go5_B_401_v1

>  <ConformerSites alias>  (91) 
3a - 7gpw/B/202

>  <CanonSites alias>  (91) 
3 - 7gpw/B/202/1

>  <CrystalformSites alias>  (91) 
F2l - 7go5/B/401/1

>  <Quatassemblies alias>  (91) 
A1 - monomer

>  <Crystalforms alias>  (91) 
F2 - EVD68_Reference_20230131

>  <ConformerSites upload name>  (91) 
3a - 7gpw/B/202

>  <CanonSites upload name>  (91) 
3 - 7gpw/B/202/1

>  <CrystalformSites upload name>  (91) 
F2l - 7go5/B/401/1

>  <Quatassemblies upload name>  (91) 
A1 - monomer

>  <Crystalforms upload name>  (91) 
F2 - EVD68_Reference_20230131

>  <ConformerSites short tag>  (91) 
3a - 7gpw/B/202

>  <CanonSites short tag>  (91) 
3 - 7gpw/B/202/1

>  <CrystalformSites short tag>  (91) 
F2l - 7go5/B/401/1

>  <Quatassemblies short tag>  (91) 
A1 - monomer

>  <Crystalforms short tag>  (91) 
F2 - EVD68_Reference_20230131

>  <Centroid res>  (91) 
7gpw/B/74/B_v1

>  <Experiment code>  (91) 
7go5

>  <Pose>  (91) 
7go5-a

$$$$
7gq7-a
     RDKit          3D

 14 14  0  0  0  0  0  0  0  0999 V2000
   -4.0660   10.3230   25.9370 C   0  0  0  0  0  0  0  0  0  0  0  0
   -4.6180    8.9060   24.0590 C   0  0  0  0  0  0  0  0  0  0  0  0
   -1.7070   10.6480   26.5810 N   0  0  0  0  0  0  0  0  0  0  0  0
   -2.7090   10.0720   25.7430 C   0  0  0  0  0  0  0  0  0  0  0  0
   -5.0110    9.7470   25.1010 C   0  0  0  0  0  0  0  0  0  0  0  0
   -5.6200    8.2330   23.1860 C   0  0  0  0  0  0  0  0  0  0  0  0
   -3.2630    8.6510   23.8840 C   0  0  0  0  0  0  0  0  0  0  0  0
    0.0760    8.6480   26.9360 C   0  0  0  0  0  0  0  0  0  0  0  0
   -2.3170    9.2280   24.7130 C   0  0  0  0  0  0  0  0  0  0  0  0
   -5.1020    7.3940   22.3290 O   0  0  0  0  0  0  0  0  0  0  0  0
   -6.8160    8.4600   23.2790 O   0  0  0  0  0  0  0  0  0  0  0  0
   -1.0360    9.7370   27.7470 S   0  0  0  0  0  0  0  0  0  0  0  0
   -0.3220   10.5750   28.6670 O   0  0  0  0  0  0  0  0  0  0  0  0
   -2.1550    8.9810   28.2260 O   0  0  0  0  0  0  0  0  0  0  0  0
  1  4  2  0
  1  5  1  0
  2  5  2  0
  2  6  1  0
  2  7  1  0
  3  4  1  0
  3 12  1  0
  4  9  1  0
  6 10  2  0
  6 11  1  0
  7  9  2  0
  8 12  1  0
 12 13  2  0
 12 14  2  0
M  END
>  <id>  (92) 
92

>  <inchikey>  (92) 
SROHFTOYGFCJAF-UHFFFAOYSA-N

>  <alias>  (92) 
7gq7-a

>  <smiles>  (92) 
CS(=O)(=O)Nc1ccc(C(=O)O)cc1

>  <path>  (92) 
/opt/xchem-fragalysis-2/maxwin/BulkDock/TARGETS/D68EV3C/aligned_files/7gq7-a/7gq7-a.pdb

>  <distance_score>  (92) 
None

>  <energy_score>  (92) 
None

>  <compound>  (92) 
SROHFTOYGFCJAF-UHFFFAOYSA-N

>  <compound_id>  (92) 
75

>  <target>  (92) 
D68EV3C

>  <tags>  (92) 
['BAD count', '[Other] upload_1 2025-02-11', 'hits', 'MEDIOCRE count', 'Main status', 'GOOD count']

>  <inspirations>  (92) 
None

>  <subsites>  (92) 
None

>  <reference>  (92) 


>  <observation_longname>  (92) 
7gq7_A_201_v1

>  <ConformerSites alias>  (92) 
1a - 7gp9/A/201

>  <CanonSites alias>  (92) 
1 - 7gp9/A/201/1

>  <CrystalformSites alias>  (92) 
F2a - 7gox/A/201/1

>  <Quatassemblies alias>  (92) 
A1 - monomer

>  <Crystalforms alias>  (92) 
F2 - EVD68_Reference_20230131

>  <ConformerSites upload name>  (92) 
1a - 7gp9/A/201

>  <CanonSites upload name>  (92) 
1 - 7gp9/A/201/1

>  <CrystalformSites upload name>  (92) 
F2a - 7gox/A/201/1

>  <Quatassemblies upload name>  (92) 
A1 - monomer

>  <Crystalforms upload name>  (92) 
F2 - EVD68_Reference_20230131

>  <ConformerSites short tag>  (92) 
1a - 7gp9/A/201

>  <CanonSites short tag>  (92) 
1 - 7gp9/A/201/1

>  <CrystalformSites short tag>  (92) 
F2a - 7gox/A/201/1

>  <Quatassemblies short tag>  (92) 
A1 - monomer

>  <Crystalforms short tag>  (92) 
F2 - EVD68_Reference_20230131

>  <Centroid res>  (92) 
7gp9/A/163/A_v1

>  <Experiment code>  (92) 
7gq7

>  <Pose>  (92) 
7gq7-a

$$$$
7go0-a
     RDKit          3D

 13 14  0  0  0  0  0  0  0  0999 V2000
   14.3510   -1.9530   16.2190 C   0  0  0  0  0  0  0  0  0  0  0  0
   13.8480    3.2400   16.0770 C   0  0  0  0  0  0  0  0  0  0  0  0
   14.0150    1.7470   16.1100 C   0  0  0  0  0  0  0  0  0  0  0  0
   13.4210    1.1140   14.9220 N   0  0  0  0  0  0  0  0  0  0  0  0
   14.0390   -0.1350   14.4600 C   0  0  0  0  0  0  0  0  0  0  0  0
   13.5630   -1.3520   15.2130 C   0  0  0  0  0  0  0  0  0  0  0  0
   12.3250   -1.9240   14.9130 C   0  0  0  0  0  0  0  0  0  0  0  0
   11.8660   -3.0590   15.5680 C   0  0  0  0  0  0  0  0  0  0  0  0
   12.6280   -3.6660   16.5540 C   0  0  0  0  0  0  0  0  0  0  0  0
   13.8630   -3.1060   16.8690 C   0  0  0  0  0  0  0  0  0  0  0  0
   14.8160   -3.4930   17.7820 N   0  0  0  0  0  0  0  0  0  0  0  0
   15.8740   -2.6220   17.7230 C   0  0  0  0  0  0  0  0  0  0  0  0
   15.6400   -1.6680   16.7890 C   0  0  0  0  0  0  0  0  0  0  0  0
  2  3  1  0
  3  4  1  0
  4  5  1  0
  5  6  1  0
  7  6  2  0
  7  8  1  0
  6  1  1  0
  8  9  2  0
  1 10  2  0
  1 13  1  0
  9 10  1  0
 10 11  1  0
 13 12  2  0
 11 12  1  0
M  END
>  <id>  (93) 
93

>  <inchikey>  (93) 
HIBJZFFYONQAOO-UHFFFAOYSA-N

>  <alias>  (93) 
7go0-a

>  <smiles>  (93) 
CCNCc1cccc2[nH]ccc12

>  <path>  (93) 
/opt/xchem-fragalysis-2/maxwin/BulkDock/TARGETS/D68EV3C/aligned_files/7go0-a/7go0-a.pdb

>  <distance_score>  (93) 
None

>  <energy_score>  (93) 
None

>  <compound>  (93) 
HIBJZFFYONQAOO-UHFFFAOYSA-N

>  <compound_id>  (93) 
76

>  <target>  (93) 
D68EV3C

>  <tags>  (93) 
['BAD count', '[Other] upload_1 2025-02-11', 'hits', 'MEDIOCRE count', 'Main status', 'GOOD count']

>  <inspirations>  (93) 
None

>  <subsites>  (93) 
None

>  <reference>  (93) 


>  <observation_longname>  (93) 
7go0_B_201_v1

>  <ConformerSites alias>  (93) 
2a - 7gon/B/201

>  <CanonSites alias>  (93) 
2 - 7gon/B/201/1

>  <CrystalformSites alias>  (93) 
F2j - 7gqb/B/201/1

>  <Quatassemblies alias>  (93) 
A1 - monomer

>  <Crystalforms alias>  (93) 
F2 - EVD68_Reference_20230131

>  <ConformerSites upload name>  (93) 
2a - 7gon/B/201

>  <CanonSites upload name>  (93) 
2 - 7gon/B/201/1

>  <CrystalformSites upload name>  (93) 
F2j - 7gqb/B/201/1

>  <Quatassemblies upload name>  (93) 
A1 - monomer

>  <Crystalforms upload name>  (93) 
F2 - EVD68_Reference_20230131

>  <ConformerSites short tag>  (93) 
2a - 7gon/B/201

>  <CanonSites short tag>  (93) 
2 - 7gon/B/201/1

>  <CrystalformSites short tag>  (93) 
F2j - 7gqb/B/201/1

>  <Quatassemblies short tag>  (93) 
A1 - monomer

>  <Crystalforms short tag>  (93) 
F2 - EVD68_Reference_20230131

>  <Centroid res>  (93) 
7gon/B/47/B_v1

>  <Experiment code>  (93) 
7go0

>  <Pose>  (93) 
7go0-a

$$$$
7gql-a
     RDKit          3D

 11 12  0  0  0  0  0  0  0  0999 V2000
  -10.6400  -25.5000   32.7600 N   0  0  0  0  0  0  0  0  0  0  0  0
  -10.3570  -25.5950   30.2460 C   0  0  0  0  0  0  0  0  0  0  0  0
  -10.6920  -24.9540   29.0580 C   0  0  0  0  0  0  0  0  0  0  0  0
  -11.4750  -23.7990   29.0600 C   0  0  0  0  0  0  0  0  0  0  0  0
  -11.9370  -23.2530   30.2510 C   0  0  0  0  0  0  0  0  0  0  0  0
  -11.5930  -23.8970   31.4330 C   0  0  0  0  0  0  0  0  0  0  0  0
  -11.8790  -23.6300   32.7640 N   0  0  0  0  0  0  0  0  0  0  0  0
  -14.0130  -22.7630   33.7330 C   0  0  0  0  0  0  0  0  0  0  0  0
  -12.6160  -22.4340   33.2850 C   0  0  0  0  0  0  0  0  0  0  0  0
  -11.2900  -24.6260   33.4870 C   0  0  0  0  0  0  0  0  0  0  0  0
  -10.8190  -25.0580   31.4470 C   0  0  0  0  0  0  0  0  0  0  0  0
  4  3  2  0
  4  5  1  0
  3  2  1  0
  5  6  2  0
  2 11  2  0
  6 11  1  0
  6  7  1  0
 11  1  1  0
  9  7  1  0
  9  8  1  0
  7 10  1  0
  1 10  2  0
M  END
>  <id>  (94) 
94

>  <inchikey>  (94) 
WVNMLOGVAVGQIT-UHFFFAOYSA-N

>  <alias>  (94) 
7gql-a

>  <smiles>  (94) 
CCn1cnc2ccccc21

>  <path>  (94) 
/opt/xchem-fragalysis-2/maxwin/BulkDock/TARGETS/D68EV3C/aligned_files/7gql-a/7gql-a.pdb

>  <distance_score>  (94) 
None

>  <energy_score>  (94) 
None

>  <compound>  (94) 
WVNMLOGVAVGQIT-UHFFFAOYSA-N

>  <compound_id>  (94) 
77

>  <target>  (94) 
D68EV3C

>  <tags>  (94) 
['BAD count', '[Other] upload_1 2025-02-11', 'hits', 'MEDIOCRE count', 'Main status', 'GOOD count']

>  <inspirations>  (94) 
None

>  <subsites>  (94) 
None

>  <reference>  (94) 


>  <observation_longname>  (94) 
7gql_A_201_v1

>  <ConformerSites alias>  (94) 
27a - 7gql/A/201

>  <CanonSites alias>  (94) 
27 - 7gql/A/201/1

>  <CrystalformSites alias>  (94) 
F2ax - 7gql/A/201/1

>  <Quatassemblies alias>  (94) 
A1 - monomer

>  <Crystalforms alias>  (94) 
F2 - EVD68_Reference_20230131

>  <ConformerSites upload name>  (94) 
27a - 7gql/A/201

>  <CanonSites upload name>  (94) 
27 - 7gql/A/201/1

>  <CrystalformSites upload name>  (94) 
F2ax - 7gql/A/201/1

>  <Quatassemblies upload name>  (94) 
A1 - monomer

>  <Crystalforms upload name>  (94) 
F2 - EVD68_Reference_20230131

>  <ConformerSites short tag>  (94) 
27a - 7gql/A/201

>  <CanonSites short tag>  (94) 
27 - 7gql/A/201/1

>  <CrystalformSites short tag>  (94) 
F2ax - 7gql/A/201/1

>  <Quatassemblies short tag>  (94) 
A1 - monomer

>  <Crystalforms short tag>  (94) 
F2 - EVD68_Reference_20230131

>  <Centroid res>  (94) 
7gql/B/115/A_v1

>  <Experiment code>  (94) 
7gql

>  <Pose>  (94) 
7gql-a

$$$$
7gpq-a
     RDKit          3D

 14 14  0  0  0  0  0  0  0  0999 V2000
   -4.5070   -2.2750    6.1610 C   0  0  0  0  0  0  0  0  0  0  0  0
   -7.3330   -3.4550    6.4660 C   0  0  0  0  0  0  0  0  0  0  0  0
   -8.7680   -3.6260    6.8910 C   0  0  0  0  0  0  0  0  0  0  0  0
   -9.5140   -2.5600    6.0900 C   0  0  0  0  0  0  0  0  0  0  0  0
   -7.2130   -1.9830    6.3820 N   0  0  0  0  0  0  0  0  0  0  0  0
   -8.9020   -0.2870    7.0610 C   0  0  0  0  0  0  0  0  0  0  0  0
   -9.7120   -0.4740    4.1540 O   0  0  0  0  0  0  0  0  0  0  0  0
   -8.5390   -1.3590    6.0310 C   0  0  2  0  0  0  0  0  0  0  0  0
   -8.5000   -0.7840    4.6100 C   0  0  0  0  0  0  0  0  0  0  0  0
   -9.9360   -0.6920    2.7400 C   0  0  0  0  0  0  0  0  0  0  0  0
   -7.4930   -0.6400    3.9770 O   0  0  0  0  0  0  0  0  0  0  0  0
   -5.7670   -0.0230    6.0080 O   0  0  0  0  0  0  0  0  0  0  0  0
   -5.7170   -1.1870    8.1710 O   0  0  0  0  0  0  0  0  0  0  0  0
   -5.8000   -1.2450    6.7470 S   0  0  0  0  0  0  0  0  0  0  0  0
  8  6  1  1
  9  8  1  0
  7  9  1  0
 10  7  1  0
 11  9  2  0
  8  5  1  0
  5 14  1  0
 12 14  2  0
  1 14  1  0
 14 13  2  0
  2  5  1  0
  3  2  1  0
  4  3  1  0
  8  4  1  0
M  END
>  <id>  (95) 
95

>  <inchikey>  (95) 
APDJGJFQSBOQHM-MRVPVSSYSA-N

>  <alias>  (95) 
7gpq-a

>  <smiles>  (95) 
COC(=O)[C@@]1(C)CCCN1S(C)(=O)=O

>  <path>  (95) 
/opt/xchem-fragalysis-2/maxwin/BulkDock/TARGETS/D68EV3C/aligned_files/7gpq-a/7gpq-a.pdb

>  <distance_score>  (95) 
None

>  <energy_score>  (95) 
None

>  <compound>  (95) 
APDJGJFQSBOQHM-UHFFFAOYSA-N

>  <compound_id>  (95) 
78

>  <target>  (95) 
D68EV3C

>  <tags>  (95) 
['BAD count', '[Other] upload_1 2025-02-11', 'hits', 'MEDIOCRE count', 'Main status', 'GOOD count']

>  <inspirations>  (95) 
None

>  <subsites>  (95) 
None

>  <reference>  (95) 


>  <observation_longname>  (95) 
7gpq_A_201_v1

>  <ConformerSites alias>  (95) 
3a - 7gpw/B/202

>  <CanonSites alias>  (95) 
3 - 7gpw/B/202/1

>  <CrystalformSites alias>  (95) 
F2m - 7goi/A/201/1

>  <Quatassemblies alias>  (95) 
A1 - monomer

>  <Crystalforms alias>  (95) 
F2 - EVD68_Reference_20230131

>  <ConformerSites upload name>  (95) 
3a - 7gpw/B/202

>  <CanonSites upload name>  (95) 
3 - 7gpw/B/202/1

>  <CrystalformSites upload name>  (95) 
F2m - 7goi/A/201/1

>  <Quatassemblies upload name>  (95) 
A1 - monomer

>  <Crystalforms upload name>  (95) 
F2 - EVD68_Reference_20230131

>  <ConformerSites short tag>  (95) 
3a - 7gpw/B/202

>  <CanonSites short tag>  (95) 
3 - 7gpw/B/202/1

>  <CrystalformSites short tag>  (95) 
F2m - 7goi/A/201/1

>  <Quatassemblies short tag>  (95) 
A1 - monomer

>  <Crystalforms short tag>  (95) 
F2 - EVD68_Reference_20230131

>  <Centroid res>  (95) 
7gpw/B/74/B_v1

>  <Experiment code>  (95) 
7gpq

>  <Pose>  (95) 
7gpq-a

$$$$
7gqj-a
     RDKit          3D

 12 13  0  0  0  0  0  0  0  0999 V2000
  -10.6960  -24.2480   27.6640 C   0  0  0  0  0  0  0  0  0  0  0  0
  -10.8450  -24.7740   26.2740 C   0  0  0  0  0  0  0  0  0  0  0  0
   -9.9620  -24.6960   28.7350 C   0  0  0  0  0  0  0  0  0  0  0  0
  -10.3750  -23.0660   32.1760 C   0  0  0  0  0  0  0  0  0  0  0  0
   -8.8360  -24.8100   31.5950 C   0  0  0  0  0  0  0  0  0  0  0  0
   -9.9510  -23.1390   33.4930 C   0  0  0  0  0  0  0  0  0  0  0  0
   -8.4240  -24.8760   32.9160 C   0  0  0  0  0  0  0  0  0  0  0  0
   -8.9790  -24.0400   33.8620 C   0  0  0  0  0  0  0  0  0  0  0  0
  -10.2690  -23.8320   29.8040 C   0  0  0  0  0  0  0  0  0  0  0  0
  -11.1330  -22.8880   29.4050 N   0  0  0  0  0  0  0  0  0  0  0  0
   -9.8170  -23.9000   31.2060 C   0  0  0  0  0  0  0  0  0  0  0  0
  -11.3770  -23.1690   28.0940 N   0  0  0  0  0  0  0  0  0  0  0  0
  1  2  1  0
  1  3  1  0
  1 12  2  0
  3  9  2  0
  4  6  2  0
  4 11  1  0
  5  7  1  0
  5 11  2  0
  6  8  1  0
  7  8  2  0
  9 10  1  0
  9 11  1  0
 10 12  1  0
M  END
>  <id>  (96) 
96

>  <inchikey>  (96) 
QHRSESMSOJZMCO-UHFFFAOYSA-N

>  <alias>  (96) 
7gqj-a

>  <smiles>  (96) 
Cc1cc(-c2ccccc2)[nH]n1

>  <path>  (96) 
/opt/xchem-fragalysis-2/maxwin/BulkDock/TARGETS/D68EV3C/aligned_files/7gqj-a/7gqj-a.pdb

>  <distance_score>  (96) 
None

>  <energy_score>  (96) 
None

>  <compound>  (96) 
QHRSESMSOJZMCO-UHFFFAOYSA-N

>  <compound_id>  (96) 
79

>  <target>  (96) 
D68EV3C

>  <tags>  (96) 
['BAD count', '[Other] upload_1 2025-02-11', 'hits', 'MEDIOCRE count', 'Main status', 'GOOD count']

>  <inspirations>  (96) 
None

>  <subsites>  (96) 
None

>  <reference>  (96) 


>  <observation_longname>  (96) 
7gqj_B_201_v1

>  <ConformerSites alias>  (96) 
4a - 7gp7/A/201

>  <CanonSites alias>  (96) 
4 - 7gp7/A/201/1

>  <CrystalformSites alias>  (96) 
F2p - 7gp4/A/201/1

>  <Quatassemblies alias>  (96) 
A1 - monomer

>  <Crystalforms alias>  (96) 
F2 - EVD68_Reference_20230131

>  <ConformerSites upload name>  (96) 
4a - 7gp7/A/201

>  <CanonSites upload name>  (96) 
4 - 7gp7/A/201/1

>  <CrystalformSites upload name>  (96) 
F2p - 7gp4/A/201/1

>  <Quatassemblies upload name>  (96) 
A1 - monomer

>  <Crystalforms upload name>  (96) 
F2 - EVD68_Reference_20230131

>  <ConformerSites short tag>  (96) 
4a - 7gp7/A/201

>  <CanonSites short tag>  (96) 
4 - 7gp7/A/201/1

>  <CrystalformSites short tag>  (96) 
F2p - 7gp4/A/201/1

>  <Quatassemblies short tag>  (96) 
A1 - monomer

>  <Crystalforms short tag>  (96) 
F2 - EVD68_Reference_20230131

>  <Centroid res>  (96) 
7gp7/A/6/A_v1

>  <Experiment code>  (96) 
7gqj

>  <Pose>  (96) 
7gqj-a

$$$$
7go7-a
     RDKit          3D

 16 17  0  0  0  0  0  0  0  0999 V2000
   16.5220   -0.8720   13.3170 N   0  0  0  0  0  0  0  0  0  0  0  0
   15.2670    0.4140   15.0260 C   0  0  0  0  0  0  0  0  0  0  0  0
   14.0140   -0.3670   14.7460 C   0  0  0  0  0  0  0  0  0  0  0  0
   13.0830   -0.1130   13.7830 C   0  0  0  0  0  0  0  0  0  0  0  0
   12.3420   -1.9270   14.8500 C   0  0  0  0  0  0  0  0  0  0  0  0
   13.5540   -1.5350   15.4510 C   0  0  0  0  0  0  0  0  0  0  0  0
   13.3530   -3.4120   16.8840 C   0  0  0  0  0  0  0  0  0  0  0  0
   16.8940   -3.1150   14.1210 C   0  0  0  0  0  0  0  0  0  0  0  0
   12.1660   -3.8100   16.3060 C   0  0  0  0  0  0  0  0  0  0  0  0
   11.6440   -3.0520   15.2710 C   0  0  0  0  0  0  0  0  0  0  0  0
   16.4380   -2.1770   13.0400 C   0  0  0  0  0  0  0  0  0  0  0  0
   16.5400   -0.3440   14.6800 C   0  0  0  0  0  0  0  0  0  0  0  0
   14.0650   -2.2940   16.5000 C   0  0  0  0  0  0  0  0  0  0  0  0
   13.8600   -4.1740   17.8870 F   0  0  0  0  0  0  0  0  0  0  0  0
   12.0750   -1.0390   13.8400 N   0  0  0  0  0  0  0  0  0  0  0  0
   16.0220   -2.5850   11.9540 O   0  0  0  0  0  0  0  0  0  0  0  0
 14  7  1  0
 13  7  1  0
 13  6  2  0
  7  9  2  0
  2 12  1  0
  2  3  1  0
 12  1  1  0
  6  3  1  0
  6  5  1  0
  9 10  1  0
  3  4  2  0
  1 11  1  0
  5 10  2  0
  5 15  1  0
 11  8  1  0
 11 16  2  0
  4 15  1  0
M  END
>  <id>  (97) 
97

>  <inchikey>  (97) 
UDLASALUJLTGJV-UHFFFAOYSA-N

>  <alias>  (97) 
7go7-a

>  <smiles>  (97) 
CC(=O)NCCc1c[nH]c2ccc(F)cc12

>  <path>  (97) 
/opt/xchem-fragalysis-2/maxwin/BulkDock/TARGETS/D68EV3C/aligned_files/7go7-a/7go7-a.pdb

>  <distance_score>  (97) 
None

>  <energy_score>  (97) 
None

>  <compound>  (97) 
UDLASALUJLTGJV-UHFFFAOYSA-N

>  <compound_id>  (97) 
80

>  <target>  (97) 
D68EV3C

>  <tags>  (97) 
['BAD count', '[Other] upload_1 2025-02-11', 'hits', 'MEDIOCRE count', 'Main status', 'GOOD count']

>  <inspirations>  (97) 
None

>  <subsites>  (97) 
None

>  <reference>  (97) 


>  <observation_longname>  (97) 
7go7_B_201_v1

>  <ConformerSites alias>  (97) 
2a - 7gon/B/201

>  <CanonSites alias>  (97) 
2 - 7gon/B/201/1

>  <CrystalformSites alias>  (97) 
F2j - 7gqb/B/201/1

>  <Quatassemblies alias>  (97) 
A1 - monomer

>  <Crystalforms alias>  (97) 
F2 - EVD68_Reference_20230131

>  <ConformerSites upload name>  (97) 
2a - 7gon/B/201

>  <CanonSites upload name>  (97) 
2 - 7gon/B/201/1

>  <CrystalformSites upload name>  (97) 
F2j - 7gqb/B/201/1

>  <Quatassemblies upload name>  (97) 
A1 - monomer

>  <Crystalforms upload name>  (97) 
F2 - EVD68_Reference_20230131

>  <ConformerSites short tag>  (97) 
2a - 7gon/B/201

>  <CanonSites short tag>  (97) 
2 - 7gon/B/201/1

>  <CrystalformSites short tag>  (97) 
F2j - 7gqb/B/201/1

>  <Quatassemblies short tag>  (97) 
A1 - monomer

>  <Crystalforms short tag>  (97) 
F2 - EVD68_Reference_20230131

>  <Centroid res>  (97) 
7gon/B/47/B_v1

>  <Experiment code>  (97) 
7go7

>  <Pose>  (97) 
7go7-a

$$$$
7gpg-a
     RDKit          3D

 12 12  0  0  0  0  0  0  0  0999 V2000
   14.2050   -2.5760   15.8260 N   0  0  0  0  0  0  0  0  0  0  0  0
   13.9730   -4.3710   17.2190 C   0  0  0  0  0  0  0  0  0  0  0  0
   11.9080   -2.2940   14.9250 C   0  0  0  0  0  0  0  0  0  0  0  0
   14.8220   -3.4230   16.7040 N   0  0  0  0  0  0  0  0  0  0  0  0
   17.0280   -4.5560   16.6070 C   0  0  0  0  0  0  0  0  0  0  0  0
   14.3010   -5.3080   17.9260 O   0  0  0  0  0  0  0  0  0  0  0  0
   16.2580   -3.2930   16.9670 C   0  0  0  0  0  0  0  0  0  0  0  0
   12.9690   -2.9110   15.7890 C   0  0  0  0  0  0  0  0  0  0  0  0
   12.5970   -4.0110   16.7280 C   0  0  0  0  0  0  0  0  0  0  0  0
   11.7360   -2.9830   13.8140 F   0  0  0  0  0  0  0  0  0  0  0  0
   10.7470   -2.2380   15.5160 F   0  0  0  0  0  0  0  0  0  0  0  0
   12.1920   -1.0710   14.5990 F   0  0  0  0  0  0  0  0  0  0  0  0
 12  3  1  0
 10  3  1  0
  1  8  2  0
  1  4  1  0
  3  8  1  0
  3 11  1  0
  7  5  1  0
  7  4  1  0
  8  9  1  0
  4  2  1  0
  2  9  1  0
  2  6  2  0
M  END
>  <id>  (98) 
98

>  <inchikey>  (98) 
NESMTDYSHSBSJX-UHFFFAOYSA-N

>  <alias>  (98) 
7gpg-a

>  <smiles>  (98) 
CCN1N=C(C(F)(F)F)CC1=O

>  <path>  (98) 
/opt/xchem-fragalysis-2/maxwin/BulkDock/TARGETS/D68EV3C/aligned_files/7gpg-a/7gpg-a.pdb

>  <distance_score>  (98) 
None

>  <energy_score>  (98) 
None

>  <compound>  (98) 
NESMTDYSHSBSJX-UHFFFAOYSA-N

>  <compound_id>  (98) 
81

>  <target>  (98) 
D68EV3C

>  <tags>  (98) 
['BAD count', '[Other] upload_1 2025-02-11', 'hits', 'MEDIOCRE count', 'Main status', 'GOOD count']

>  <inspirations>  (98) 
None

>  <subsites>  (98) 
None

>  <reference>  (98) 


>  <observation_longname>  (98) 
7gpg_B_201_v1

>  <ConformerSites alias>  (98) 
2a - 7gon/B/201

>  <CanonSites alias>  (98) 
2 - 7gon/B/201/1

>  <CrystalformSites alias>  (98) 
F2j - 7gqb/B/201/1

>  <Quatassemblies alias>  (98) 
A1 - monomer

>  <Crystalforms alias>  (98) 
F2 - EVD68_Reference_20230131

>  <ConformerSites upload name>  (98) 
2a - 7gon/B/201

>  <CanonSites upload name>  (98) 
2 - 7gon/B/201/1

>  <CrystalformSites upload name>  (98) 
F2j - 7gqb/B/201/1

>  <Quatassemblies upload name>  (98) 
A1 - monomer

>  <Crystalforms upload name>  (98) 
F2 - EVD68_Reference_20230131

>  <ConformerSites short tag>  (98) 
2a - 7gon/B/201

>  <CanonSites short tag>  (98) 
2 - 7gon/B/201/1

>  <CrystalformSites short tag>  (98) 
F2j - 7gqb/B/201/1

>  <Quatassemblies short tag>  (98) 
A1 - monomer

>  <Crystalforms short tag>  (98) 
F2 - EVD68_Reference_20230131

>  <Centroid res>  (98) 
7gon/B/47/B_v1

>  <Experiment code>  (98) 
7gpg

>  <Pose>  (98) 
7gpg-a

$$$$
7go9-a
     RDKit          3D

 12 13  0  0  0  0  0  0  0  0999 V2000
   -8.7920   -4.7550    7.1160 N   0  0  0  0  0  0  0  0  0  0  0  0
   -5.2140    0.0000    7.7990 C   0  0  0  0  0  0  0  0  0  0  0  0
   -7.6850   -2.7920    7.1800 C   0  0  0  0  0  0  0  0  0  0  0  0
   -8.4590   -3.7290    7.8870 C   0  0  0  0  0  0  0  0  0  0  0  0
   -7.5740   -3.3330    5.9090 C   0  0  0  0  0  0  0  0  0  0  0  0
   -5.8190   -1.2620    7.3660 N   0  0  0  0  0  0  0  0  0  0  0  0
   -7.1130   -1.5190    7.6180 C   0  0  0  0  0  0  0  0  0  0  0  0
   -7.8390   -0.7310    8.2150 O   0  0  0  0  0  0  0  0  0  0  0  0
   -4.8280   -2.1180    6.6890 C   0  0  0  0  0  0  0  0  0  0  0  0
   -3.5560   -1.2870    6.7220 C   0  0  0  0  0  0  0  0  0  0  0  0
   -3.7440   -0.3340    7.8620 C   0  0  0  0  0  0  0  0  0  0  0  0
   -8.2430   -4.4870    5.9160 N   0  0  0  0  0  0  0  0  0  0  0  0
  8  7  2  0
  9 10  1  0
  9  6  1  0
  7  6  1  0
  7  3  1  0
  5  3  1  0
  5 12  2  0
 10 11  1  0
  6  2  1  0
  3  4  2  0
 12  1  1  0
 11  2  1  0
  4  1  1  0
M  END
>  <id>  (99) 
99

>  <inchikey>  (99) 
ZCTYYKNBCKBIMR-UHFFFAOYSA-N

>  <alias>  (99) 
7go9-a

>  <smiles>  (99) 
O=C(c1cn[nH]c1)N1CCCC1

>  <path>  (99) 
/opt/xchem-fragalysis-2/maxwin/BulkDock/TARGETS/D68EV3C/aligned_files/7go9-a/7go9-a.pdb

>  <distance_score>  (99) 
None

>  <energy_score>  (99) 
None

>  <compound>  (99) 
ZCTYYKNBCKBIMR-UHFFFAOYSA-N

>  <compound_id>  (99) 
82

>  <target>  (99) 
D68EV3C

>  <tags>  (99) 
['BAD count', '[Other] upload_1 2025-02-11', 'hits', 'MEDIOCRE count', 'Main status', 'GOOD count']

>  <inspirations>  (99) 
None

>  <subsites>  (99) 
None

>  <reference>  (99) 


>  <observation_longname>  (99) 
7go9_A_201_v1

>  <ConformerSites alias>  (99) 
3a - 7gpw/B/202

>  <CanonSites alias>  (99) 
3 - 7gpw/B/202/1

>  <CrystalformSites alias>  (99) 
F2m - 7goi/A/201/1

>  <Quatassemblies alias>  (99) 
A1 - monomer

>  <Crystalforms alias>  (99) 
F2 - EVD68_Reference_20230131

>  <ConformerSites upload name>  (99) 
3a - 7gpw/B/202

>  <CanonSites upload name>  (99) 
3 - 7gpw/B/202/1

>  <CrystalformSites upload name>  (99) 
F2m - 7goi/A/201/1

>  <Quatassemblies upload name>  (99) 
A1 - monomer

>  <Crystalforms upload name>  (99) 
F2 - EVD68_Reference_20230131

>  <ConformerSites short tag>  (99) 
3a - 7gpw/B/202

>  <CanonSites short tag>  (99) 
3 - 7gpw/B/202/1

>  <CrystalformSites short tag>  (99) 
F2m - 7goi/A/201/1

>  <Quatassemblies short tag>  (99) 
A1 - monomer

>  <Crystalforms short tag>  (99) 
F2 - EVD68_Reference_20230131

>  <Centroid res>  (99) 
7gpw/B/74/B_v1

>  <Experiment code>  (99) 
7go9

>  <Pose>  (99) 
7go9-a

$$$$
7gqg-a
     RDKit          3D

 16 17  0  0  0  0  0  0  0  0999 V2000
  -10.9020    3.2490   10.8700 N   0  0  0  0  0  0  0  0  0  0  0  0
  -12.8580    1.0680   11.1060 C   0  0  0  0  0  0  0  0  0  0  0  0
  -13.0030    1.6810   12.3470 C   0  0  0  0  0  0  0  0  0  0  0  0
  -11.0070    3.2690   12.2170 C   0  0  0  0  0  0  0  0  0  0  0  0
   -9.9510    4.0410   10.3610 C   0  0  0  0  0  0  0  0  0  0  0  0
   -9.1120    4.8180   11.1370 C   0  0  0  0  0  0  0  0  0  0  0  0
  -14.0840    1.3630   13.1580 C   0  0  0  0  0  0  0  0  0  0  0  0
  -16.3920    0.7000   14.6390 O   0  0  0  0  0  0  0  0  0  0  0  0
  -16.2530    0.1950   13.5320 C   0  0  0  0  0  0  0  0  0  0  0  0
  -17.1030   -0.6710   12.9980 O   0  0  0  0  0  0  0  0  0  0  0  0
  -15.0700    0.4950   12.6910 C   0  0  0  0  0  0  0  0  0  0  0  0
  -13.8270    0.1870   10.6510 C   0  0  0  0  0  0  0  0  0  0  0  0
  -14.9330   -0.0890   11.4300 C   0  0  0  0  0  0  0  0  0  0  0  0
  -12.0570    2.6180   12.7930 N   0  0  0  0  0  0  0  0  0  0  0  0
  -10.2590    3.9900   13.0660 N   0  0  0  0  0  0  0  0  0  0  0  0
   -9.3050    4.7440   12.5020 C   0  0  0  0  0  0  0  0  0  0  0  0
 10  9  1  0
  9  8  2  0
 11  9  1  0
 11 13  2  0
 13 12  1  0
 12  2  2  0
  2  3  1  0
 14  3  1  0
  4 14  1  0
  4  1  2  0
  1  5  1  0
  5  6  2  0
  6 16  1  0
 16 15  2  0
 15  4  1  0
  3  7  2  0
  7 11  1  0
M  END
>  <id>  (100) 
100

>  <inchikey>  (100) 
JCCQTGJTDPBYJP-UHFFFAOYSA-N

>  <alias>  (100) 
7gqg-a

>  <smiles>  (100) 
O=C(O)c1cccc(Nc2ncccn2)c1

>  <path>  (100) 
/opt/xchem-fragalysis-2/maxwin/BulkDock/TARGETS/D68EV3C/aligned_files/7gqg-a/7gqg-a.pdb

>  <distance_score>  (100) 
None

>  <energy_score>  (100) 
None

>  <compound>  (100) 
JCCQTGJTDPBYJP-UHFFFAOYSA-N

>  <compound_id>  (100) 
83

>  <target>  (100) 
D68EV3C

>  <tags>  (100) 
['BAD count', '[Other] upload_1 2025-02-11', 'hits', 'MEDIOCRE count', 'Main status', 'GOOD count']

>  <inspirations>  (100) 
None

>  <subsites>  (100) 
None

>  <reference>  (100) 


>  <observation_longname>  (100) 
7gqg_B_201_v1

>  <ConformerSites alias>  (100) 
3a - 7gpw/B/202

>  <CanonSites alias>  (100) 
3 - 7gpw/B/202/1

>  <CrystalformSites alias>  (100) 
F2n - 7gou/B/202/1

>  <Quatassemblies alias>  (100) 
A1 - monomer

>  <Crystalforms alias>  (100) 
F2 - EVD68_Reference_20230131

>  <ConformerSites upload name>  (100) 
3a - 7gpw/B/202

>  <CanonSites upload name>  (100) 
3 - 7gpw/B/202/1

>  <CrystalformSites upload name>  (100) 
F2n - 7gou/B/202/1

>  <Quatassemblies upload name>  (100) 
A1 - monomer

>  <Crystalforms upload name>  (100) 
F2 - EVD68_Reference_20230131

>  <ConformerSites short tag>  (100) 
3a - 7gpw/B/202

>  <CanonSites short tag>  (100) 
3 - 7gpw/B/202/1

>  <CrystalformSites short tag>  (100) 
F2n - 7gou/B/202/1

>  <Quatassemblies short tag>  (100) 
A1 - monomer

>  <Crystalforms short tag>  (100) 
F2 - EVD68_Reference_20230131

>  <Centroid res>  (100) 
7gpw/B/74/B_v1

>  <Experiment code>  (100) 
7gqg

>  <Pose>  (100) 
7gqg-a

$$$$
7gqp-a
     RDKit          3D

  7  7  0  0  0  0  0  0  0  0999 V2000
  -11.0940  -26.4990   27.8420 N   0  0  0  0  0  0  0  0  0  0  0  0
   -9.7360  -25.4980   30.9480 N   0  0  0  0  0  0  0  0  0  0  0  0
  -10.2480  -25.4860   29.9280 C   0  0  0  0  0  0  0  0  0  0  0  0
  -10.8880  -25.3990   28.6440 C   0  0  0  0  0  0  0  0  0  0  0  0
  -11.3800  -24.2890   28.0250 C   0  0  0  0  0  0  0  0  0  0  0  0
  -11.8980  -24.7070   26.8330 N   0  0  0  0  0  0  0  0  0  0  0  0
  -11.7060  -26.0280   26.7620 C   0  0  0  0  0  0  0  0  0  0  0  0
  2  3  3  0
  3  4  1  0
  5  4  2  0
  5  6  1  0
  4  1  1  0
  6  7  2  0
  1  7  1  0
M  END
>  <id>  (101) 
101

>  <inchikey>  (101) 
NWVGXXPWOYZODV-UHFFFAOYSA-N

>  <alias>  (101) 
7gqp-a

>  <smiles>  (101) 
N#Cc1cnc[nH]1

>  <path>  (101) 
/opt/xchem-fragalysis-2/maxwin/BulkDock/TARGETS/D68EV3C/aligned_files/7gqp-a/7gqp-a.pdb

>  <distance_score>  (101) 
None

>  <energy_score>  (101) 
None

>  <compound>  (101) 
NWVGXXPWOYZODV-UHFFFAOYSA-N

>  <compound_id>  (101) 
52

>  <target>  (101) 
D68EV3C

>  <tags>  (101) 
['BAD count', '[Other] upload_1 2025-02-11', 'hits', 'MEDIOCRE count', 'Main status', 'GOOD count']

>  <inspirations>  (101) 
None

>  <subsites>  (101) 
None

>  <reference>  (101) 


>  <observation_longname>  (101) 
7gqp_A_201_v1

>  <ConformerSites alias>  (101) 
10c - 7gqp/A/201

>  <CanonSites alias>  (101) 
10 - 7gq5/A/201/1

>  <CrystalformSites alias>  (101) 
F2af - 7gq5/A/201/1

>  <Quatassemblies alias>  (101) 
A1 - monomer

>  <Crystalforms alias>  (101) 
F2 - EVD68_Reference_20230131

>  <ConformerSites upload name>  (101) 
10c - 7gqp/A/201

>  <CanonSites upload name>  (101) 
10 - 7gq5/A/201/1

>  <CrystalformSites upload name>  (101) 
F2af - 7gq5/A/201/1

>  <Quatassemblies upload name>  (101) 
A1 - monomer

>  <Crystalforms upload name>  (101) 
F2 - EVD68_Reference_20230131

>  <ConformerSites short tag>  (101) 
10c - 7gqp/A/201

>  <CanonSites short tag>  (101) 
10 - 7gq5/A/201/1

>  <CrystalformSites short tag>  (101) 
F2af - 7gq5/A/201/1

>  <Quatassemblies short tag>  (101) 
A1 - monomer

>  <Crystalforms short tag>  (101) 
F2 - EVD68_Reference_20230131

>  <Centroid res>  (101) 
7gq5/B/115/A_v1

>  <Experiment code>  (101) 
7gqp

>  <Pose>  (101) 
7gqp-a

$$$$
7gq2-a
     RDKit          3D

  7  7  0  0  0  0  0  0  0  0999 V2000
    8.1750   -9.8080   -1.5100 N   0  0  0  0  0  0  0  0  0  0  0  0
    8.3950   -9.0200    0.6070 N   0  0  0  0  0  0  0  0  0  0  0  0
    7.8480   -8.8950   -0.5540 C   0  0  0  0  0  0  0  0  0  0  0  0
    6.9280   -7.9450   -0.8460 N   0  0  0  0  0  0  0  0  0  0  0  0
    6.2460   -7.8440   -2.1280 C   0  0  0  0  0  0  0  0  0  0  0  0
    7.0310   -8.4800   -3.2220 C   0  0  0  0  0  0  0  0  0  0  0  0
    7.5570   -9.8400   -2.8370 C   0  0  0  0  0  0  0  0  0  0  0  0
  5  4  1  0
  5  6  1  0
  4  3  2  0
  6  7  1  0
  3  2  1  0
  3  1  1  0
  7  1  1  0
M  END
>  <id>  (102) 
102

>  <inchikey>  (102) 
PEHDFSFYZKSKGH-UHFFFAOYSA-N

>  <alias>  (102) 
7gq2-a

>  <smiles>  (102) 
NC1=NCCCN1

>  <path>  (102) 
/opt/xchem-fragalysis-2/maxwin/BulkDock/TARGETS/D68EV3C/aligned_files/7gq2-a/7gq2-a.pdb

>  <distance_score>  (102) 
None

>  <energy_score>  (102) 
None

>  <compound>  (102) 
PEHDFSFYZKSKGH-UHFFFAOYSA-N

>  <compound_id>  (102) 
84

>  <target>  (102) 
D68EV3C

>  <tags>  (102) 
['BAD count', '[Other] upload_1 2025-02-11', 'hits', 'MEDIOCRE count', 'Main status', 'GOOD count']

>  <inspirations>  (102) 
None

>  <subsites>  (102) 
None

>  <reference>  (102) 


>  <observation_longname>  (102) 
7gq2_A_201_v1

>  <ConformerSites alias>  (102) 
26a - 7gq2/A/201

>  <CanonSites alias>  (102) 
26 - 7gq2/A/201/1

>  <CrystalformSites alias>  (102) 
F2aw - 7gq2/A/201/1

>  <Quatassemblies alias>  (102) 
A1 - monomer

>  <Crystalforms alias>  (102) 
F2 - EVD68_Reference_20230131

>  <ConformerSites upload name>  (102) 
26a - 7gq2/A/201

>  <CanonSites upload name>  (102) 
26 - 7gq2/A/201/1

>  <CrystalformSites upload name>  (102) 
F2aw - 7gq2/A/201/1

>  <Quatassemblies upload name>  (102) 
A1 - monomer

>  <Crystalforms upload name>  (102) 
F2 - EVD68_Reference_20230131

>  <ConformerSites short tag>  (102) 
26a - 7gq2/A/201

>  <CanonSites short tag>  (102) 
26 - 7gq2/A/201/1

>  <CrystalformSites short tag>  (102) 
F2aw - 7gq2/A/201/1

>  <Quatassemblies short tag>  (102) 
A1 - monomer

>  <Crystalforms short tag>  (102) 
F2 - EVD68_Reference_20230131

>  <Centroid res>  (102) 
7gq2/A/79/A_v1

>  <Experiment code>  (102) 
7gq2

>  <Pose>  (102) 
7gq2-a

$$$$
7gqa-a
     RDKit          3D

 12 13  0  0  0  0  0  0  0  0999 V2000
   12.3700    0.8510   15.7620 N   0  0  0  0  0  0  0  0  0  0  0  0
   11.5150   -1.4380   15.1050 C   0  0  0  0  0  0  0  0  0  0  0  0
   11.7110   -2.7980   15.2870 C   0  0  0  0  0  0  0  0  0  0  0  0
   12.7140   -3.2690   16.1380 C   0  0  0  0  0  0  0  0  0  0  0  0
   13.5450   -2.3870   16.8210 C   0  0  0  0  0  0  0  0  0  0  0  0
   13.3360   -1.0310   16.6280 C   0  0  0  0  0  0  0  0  0  0  0  0
   13.9910    0.0970   17.1180 N   0  0  0  0  0  0  0  0  0  0  0  0
   15.1280    0.0820   18.0330 C   0  0  0  0  0  0  0  0  0  0  0  0
   13.2160    3.2940   17.7860 O   0  0  0  0  0  0  0  0  0  0  0  0
   13.3690    1.1830   16.5480 C   0  0  0  0  0  0  0  0  0  0  0  0
   13.8590    2.6260   16.7250 C   0  0  0  0  0  0  0  0  0  0  0  0
   12.3390   -0.5440   15.7870 C   0  0  0  0  0  0  0  0  0  0  0  0
 11  9  1  0
 11 10  1  0
 10  1  2  0
 10  7  1  0
  1 12  1  0
  7  8  1  0
  7  6  1  0
 12  2  2  0
 12  6  1  0
  2  3  1  0
  6  5  2  0
  3  4  2  0
  5  4  1  0
M  END
>  <id>  (103) 
103

>  <inchikey>  (103) 
SQRSIOZFPSFABI-UHFFFAOYSA-N

>  <alias>  (103) 
7gqa-a

>  <smiles>  (103) 
Cn1c(CO)nc2ccccc21

>  <path>  (103) 
/opt/xchem-fragalysis-2/maxwin/BulkDock/TARGETS/D68EV3C/aligned_files/7gqa-a/7gqa-a.pdb

>  <distance_score>  (103) 
None

>  <energy_score>  (103) 
None

>  <compound>  (103) 
SQRSIOZFPSFABI-UHFFFAOYSA-N

>  <compound_id>  (103) 
85

>  <target>  (103) 
D68EV3C

>  <tags>  (103) 
['BAD count', '[Other] upload_1 2025-02-11', 'hits', 'MEDIOCRE count', 'Main status', 'GOOD count']

>  <inspirations>  (103) 
None

>  <subsites>  (103) 
None

>  <reference>  (103) 


>  <observation_longname>  (103) 
7gqa_B_201_v1

>  <ConformerSites alias>  (103) 
2a - 7gon/B/201

>  <CanonSites alias>  (103) 
2 - 7gon/B/201/1

>  <CrystalformSites alias>  (103) 
F2j - 7gqb/B/201/1

>  <Quatassemblies alias>  (103) 
A1 - monomer

>  <Crystalforms alias>  (103) 
F2 - EVD68_Reference_20230131

>  <ConformerSites upload name>  (103) 
2a - 7gon/B/201

>  <CanonSites upload name>  (103) 
2 - 7gon/B/201/1

>  <CrystalformSites upload name>  (103) 
F2j - 7gqb/B/201/1

>  <Quatassemblies upload name>  (103) 
A1 - monomer

>  <Crystalforms upload name>  (103) 
F2 - EVD68_Reference_20230131

>  <ConformerSites short tag>  (103) 
2a - 7gon/B/201

>  <CanonSites short tag>  (103) 
2 - 7gon/B/201/1

>  <CrystalformSites short tag>  (103) 
F2j - 7gqb/B/201/1

>  <Quatassemblies short tag>  (103) 
A1 - monomer

>  <Crystalforms short tag>  (103) 
F2 - EVD68_Reference_20230131

>  <Centroid res>  (103) 
7gon/B/47/B_v1

>  <Experiment code>  (103) 
7gqa

>  <Pose>  (103) 
7gqa-a

$$$$
7gob-a
     RDKit          3D

 12 12  0  0  0  0  0  0  0  0999 V2000
  -12.2290  -25.5900   25.6160 C   0  0  0  0  0  0  0  0  0  0  0  0
  -12.0650  -24.3870   26.2810 C   0  0  0  0  0  0  0  0  0  0  0  0
  -11.3090  -24.2990   27.4430 C   0  0  0  0  0  0  0  0  0  0  0  0
  -14.4850  -23.2610   25.7420 N   0  0  0  0  0  0  0  0  0  0  0  0
   -9.9140  -25.3590   29.2540 C   0  0  0  0  0  0  0  0  0  0  0  0
  -12.5640  -22.8160   24.2790 O   0  0  0  0  0  0  0  0  0  0  0  0
  -10.7060  -25.4340   27.9730 C   0  0  0  0  0  0  0  0  0  0  0  0
  -10.8720  -26.6420   27.3130 C   0  0  0  0  0  0  0  0  0  0  0  0
  -11.6250  -26.6870   26.1670 C   0  0  0  0  0  0  0  0  0  0  0  0
  -11.7960  -27.8890   25.5500 F   0  0  0  0  0  0  0  0  0  0  0  0
  -12.6290  -21.8680   26.5520 O   0  0  0  0  0  0  0  0  0  0  0  0
  -12.9070  -22.9620   25.6640 S   0  0  0  0  0  0  0  0  0  0  0  0
  5  7  1  0
  7  8  2  0
  8  9  1  0
 10  9  1  0
  9  1  2  0
  1  2  1  0
  3  2  2  0
  7  3  1  0
  2 12  1  0
  6 12  2  0
 12 11  2  0
  4 12  1  0
M  END
>  <id>  (104) 
104

>  <inchikey>  (104) 
RMTMZIARFLDIKQ-UHFFFAOYSA-N

>  <alias>  (104) 
7gob-a

>  <smiles>  (104) 
Cc1cc(F)cc(S(N)(=O)=O)c1

>  <path>  (104) 
/opt/xchem-fragalysis-2/maxwin/BulkDock/TARGETS/D68EV3C/aligned_files/7gob-a/7gob-a.pdb

>  <distance_score>  (104) 
None

>  <energy_score>  (104) 
None

>  <compound>  (104) 
RMTMZIARFLDIKQ-UHFFFAOYSA-N

>  <compound_id>  (104) 
86

>  <target>  (104) 
D68EV3C

>  <tags>  (104) 
['BAD count', '[Other] upload_1 2025-02-11', 'hits', 'MEDIOCRE count', 'Main status', 'GOOD count']

>  <inspirations>  (104) 
None

>  <subsites>  (104) 
None

>  <reference>  (104) 


>  <observation_longname>  (104) 
7gob_B_201_v1

>  <ConformerSites alias>  (104) 
15a - 7gob/B/201

>  <CanonSites alias>  (104) 
15 - 7gob/B/201/1

>  <CrystalformSites alias>  (104) 
F2al - 7gob/B/201/1

>  <Quatassemblies alias>  (104) 
A1 - monomer

>  <Crystalforms alias>  (104) 
F2 - EVD68_Reference_20230131

>  <ConformerSites upload name>  (104) 
15a - 7gob/B/201

>  <CanonSites upload name>  (104) 
15 - 7gob/B/201/1

>  <CrystalformSites upload name>  (104) 
F2al - 7gob/B/201/1

>  <Quatassemblies upload name>  (104) 
A1 - monomer

>  <Crystalforms upload name>  (104) 
F2 - EVD68_Reference_20230131

>  <ConformerSites short tag>  (104) 
15a - 7gob/B/201

>  <CanonSites short tag>  (104) 
15 - 7gob/B/201/1

>  <CrystalformSites short tag>  (104) 
F2al - 7gob/B/201/1

>  <Quatassemblies short tag>  (104) 
A1 - monomer

>  <Crystalforms short tag>  (104) 
F2 - EVD68_Reference_20230131

>  <Centroid res>  (104) 
7gob/B/101/B_v1

>  <Experiment code>  (104) 
7gob

>  <Pose>  (104) 
7gob-a

$$$$
7go2-a
     RDKit          3D

  9 10  0  0  0  0  0  0  0  0999 V2000
   -1.8520   -8.3030   32.2300 N   0  0  0  0  0  0  0  0  0  0  0  0
   -0.1540   -6.8920   32.3300 N   0  0  0  0  0  0  0  0  0  0  0  0
    0.7610   -6.0670   32.9740 C   0  0  0  0  0  0  0  0  0  0  0  0
   -1.3510   -8.0960   30.9450 N   0  0  0  0  0  0  0  0  0  0  0  0
   -0.3540   -7.2590   31.0340 C   0  0  0  0  0  0  0  0  0  0  0  0
   -1.1250   -7.5670   33.0620 C   0  0  0  0  0  0  0  0  0  0  0  0
   -1.1310   -7.3510   34.4660 C   0  0  0  0  0  0  0  0  0  0  0  0
    0.6690   -5.9420   34.3130 C   0  0  0  0  0  0  0  0  0  0  0  0
   -0.2780   -6.5710   35.0830 N   0  0  0  0  0  0  0  0  0  0  0  0
  1  4  1  0
  1  6  2  0
  4  5  2  0
  6  7  1  0
  6  2  1  0
  5  2  1  0
  7  9  2  0
  2  3  1  0
  9  8  1  0
  3  8  2  0
M  END
>  <id>  (105) 
105

>  <inchikey>  (105) 
NVSPJDGXKBDYIZ-UHFFFAOYSA-N

>  <alias>  (105) 
7go2-a

>  <smiles>  (105) 
c1cn2cnnc2cn1

>  <path>  (105) 
/opt/xchem-fragalysis-2/maxwin/BulkDock/TARGETS/D68EV3C/aligned_files/7go2-a/7go2-a.pdb

>  <distance_score>  (105) 
None

>  <energy_score>  (105) 
None

>  <compound>  (105) 
NVSPJDGXKBDYIZ-UHFFFAOYSA-N

>  <compound_id>  (105) 
87

>  <target>  (105) 
D68EV3C

>  <tags>  (105) 
['BAD count', '[Other] upload_1 2025-02-11', '[Other] iter1_frags', 'hits', 'MEDIOCRE count', 'Main status', 'GOOD count']

>  <inspirations>  (105) 
None

>  <subsites>  (105) 
None

>  <reference>  (105) 


>  <observation_longname>  (105) 
7go2_A_201_v1

>  <ConformerSites alias>  (105) 
1a - 7gp9/A/201

>  <CanonSites alias>  (105) 
1 - 7gp9/A/201/1

>  <CrystalformSites alias>  (105) 
F2b - 7gp9/A/201/1

>  <Quatassemblies alias>  (105) 
A1 - monomer

>  <Crystalforms alias>  (105) 
F2 - EVD68_Reference_20230131

>  <ConformerSites upload name>  (105) 
1a - 7gp9/A/201

>  <CanonSites upload name>  (105) 
1 - 7gp9/A/201/1

>  <CrystalformSites upload name>  (105) 
F2b - 7gp9/A/201/1

>  <Quatassemblies upload name>  (105) 
A1 - monomer

>  <Crystalforms upload name>  (105) 
F2 - EVD68_Reference_20230131

>  <ConformerSites short tag>  (105) 
1a - 7gp9/A/201

>  <CanonSites short tag>  (105) 
1 - 7gp9/A/201/1

>  <CrystalformSites short tag>  (105) 
F2b - 7gp9/A/201/1

>  <Quatassemblies short tag>  (105) 
A1 - monomer

>  <Crystalforms short tag>  (105) 
F2 - EVD68_Reference_20230131

>  <Centroid res>  (105) 
7gp9/A/163/A_v1

>  <Experiment code>  (105) 
7go2

>  <Pose>  (105) 
7go2-a

$$$$
7go4-a
     RDKit          3D

 11 12  0  0  0  0  0  0  0  0999 V2000
   13.0940   -1.5790   16.6320 N   0  0  0  0  0  0  0  0  0  0  0  0
   12.6660    0.7090   16.1120 N   0  0  0  0  0  0  0  0  0  0  0  0
   12.5420   -2.8010   16.2890 C   0  0  0  0  0  0  0  0  0  0  0  0
   11.5270   -2.5130   15.4290 C   0  0  0  0  0  0  0  0  0  0  0  0
   12.3670   -0.6040   15.9570 C   0  0  0  0  0  0  0  0  0  0  0  0
   13.6400    1.0170   16.9270 C   0  0  0  0  0  0  0  0  0  0  0  0
   14.4220    0.0870   17.6340 C   0  0  0  0  0  0  0  0  0  0  0  0
   14.1420   -1.2270   17.4570 C   0  0  0  0  0  0  0  0  0  0  0  0
   11.4070   -1.1490   15.2120 N   0  0  0  0  0  0  0  0  0  0  0  0
   13.9400    2.3070   17.1150 O   0  0  0  0  0  0  0  0  0  0  0  0
   14.8140   -2.2170   17.9680 O   0  0  0  0  0  0  0  0  0  0  0  0
 10  6  1  0
  6  7  1  0
  7  8  2  0
  8 11  1  0
  8  1  1  0
  1  3  1  0
  3  4  2  0
  4  9  1  0
  9  5  2  0
  5  2  1  0
  6  2  2  0
  1  5  1  0
M  END
>  <id>  (106) 
106

>  <inchikey>  (106) 
BELWUABPSOOYPK-UHFFFAOYSA-N

>  <alias>  (106) 
7go4-a

>  <smiles>  (106) 
Oc1cc(O)n2ccnc2n1

>  <path>  (106) 
/opt/xchem-fragalysis-2/maxwin/BulkDock/TARGETS/D68EV3C/aligned_files/7go4-a/7go4-a.pdb

>  <distance_score>  (106) 
None

>  <energy_score>  (106) 
None

>  <compound>  (106) 
BELWUABPSOOYPK-UHFFFAOYSA-N

>  <compound_id>  (106) 
88

>  <target>  (106) 
D68EV3C

>  <tags>  (106) 
['BAD count', '[Other] upload_1 2025-02-11', 'hits', 'MEDIOCRE count', 'Main status', 'GOOD count']

>  <inspirations>  (106) 
None

>  <subsites>  (106) 
None

>  <reference>  (106) 


>  <observation_longname>  (106) 
7go4_B_201_v1

>  <ConformerSites alias>  (106) 
2a - 7gon/B/201

>  <CanonSites alias>  (106) 
2 - 7gon/B/201/1

>  <CrystalformSites alias>  (106) 
F2j - 7gqb/B/201/1

>  <Quatassemblies alias>  (106) 
A1 - monomer

>  <Crystalforms alias>  (106) 
F2 - EVD68_Reference_20230131

>  <ConformerSites upload name>  (106) 
2a - 7gon/B/201

>  <CanonSites upload name>  (106) 
2 - 7gon/B/201/1

>  <CrystalformSites upload name>  (106) 
F2j - 7gqb/B/201/1

>  <Quatassemblies upload name>  (106) 
A1 - monomer

>  <Crystalforms upload name>  (106) 
F2 - EVD68_Reference_20230131

>  <ConformerSites short tag>  (106) 
2a - 7gon/B/201

>  <CanonSites short tag>  (106) 
2 - 7gon/B/201/1

>  <CrystalformSites short tag>  (106) 
F2j - 7gqb/B/201/1

>  <Quatassemblies short tag>  (106) 
A1 - monomer

>  <Crystalforms short tag>  (106) 
F2 - EVD68_Reference_20230131

>  <Centroid res>  (106) 
7gon/B/47/B_v1

>  <Experiment code>  (106) 
7go4

>  <Pose>  (106) 
7go4-a

$$$$
7go4-b
     RDKit          3D

 11 12  0  0  0  0  0  0  0  0999 V2000
  -11.5280  -23.8510   31.2700 N   0  0  0  0  0  0  0  0  0  0  0  0
  -11.9470  -22.5100   29.3350 N   0  0  0  0  0  0  0  0  0  0  0  0
  -11.6740  -23.6830   32.6370 C   0  0  0  0  0  0  0  0  0  0  0  0
  -12.1080  -22.4110   32.8060 C   0  0  0  0  0  0  0  0  0  0  0  0
  -11.9080  -22.6470   30.6840 C   0  0  0  0  0  0  0  0  0  0  0  0
  -11.6330  -23.5450   28.6260 C   0  0  0  0  0  0  0  0  0  0  0  0
  -11.2060  -24.7840   29.1370 C   0  0  0  0  0  0  0  0  0  0  0  0
  -11.1590  -24.9230   30.5030 C   0  0  0  0  0  0  0  0  0  0  0  0
  -12.2540  -21.7510   31.6030 N   0  0  0  0  0  0  0  0  0  0  0  0
  -11.7930  -23.4770   27.3070 O   0  0  0  0  0  0  0  0  0  0  0  0
  -10.8180  -26.0080   31.1500 O   0  0  0  0  0  0  0  0  0  0  0  0
 10  6  1  0
  6  7  1  0
  7  8  2  0
  8 11  1  0
  8  1  1  0
  1  3  1  0
  3  4  2  0
  4  9  1  0
  9  5  2  0
  5  2  1  0
  6  2  2  0
  1  5  1  0
M  END
>  <id>  (107) 
107

>  <inchikey>  (107) 
BELWUABPSOOYPK-UHFFFAOYSA-N

>  <alias>  (107) 
7go4-b

>  <smiles>  (107) 
Oc1cc(O)n2ccnc2n1

>  <path>  (107) 
/opt/xchem-fragalysis-2/maxwin/BulkDock/TARGETS/D68EV3C/aligned_files/7go4-b/7go4-b.pdb

>  <distance_score>  (107) 
None

>  <energy_score>  (107) 
None

>  <compound>  (107) 
BELWUABPSOOYPK-UHFFFAOYSA-N

>  <compound_id>  (107) 
88

>  <target>  (107) 
D68EV3C

>  <tags>  (107) 
['BAD count', '[Other] upload_1 2025-02-11', 'hits', 'MEDIOCRE count', 'Main status', 'GOOD count']

>  <inspirations>  (107) 
None

>  <subsites>  (107) 
None

>  <reference>  (107) 


>  <observation_longname>  (107) 
7go4_B_202_v1

>  <ConformerSites alias>  (107) 
5b - 7go4/B/202

>  <CanonSites alias>  (107) 
5 - B1120/A/308/1

>  <CrystalformSites alias>  (107) 
F2r - 7goj/A/201/1

>  <Quatassemblies alias>  (107) 
A1 - monomer

>  <Crystalforms alias>  (107) 
F2 - EVD68_Reference_20230131

>  <ConformerSites upload name>  (107) 
5b - 7go4/B/202

>  <CanonSites upload name>  (107) 
5 - D68EV3CPROB-x1120/A/308/1

>  <CrystalformSites upload name>  (107) 
F2r - 7goj/A/201/1

>  <Quatassemblies upload name>  (107) 
A1 - monomer

>  <Crystalforms upload name>  (107) 
F2 - EVD68_Reference_20230131

>  <ConformerSites short tag>  (107) 
5b - 7go4/B/202

>  <CanonSites short tag>  (107) 
5 - B1120/A/308/1

>  <CrystalformSites short tag>  (107) 
F2r - 7goj/A/201/1

>  <Quatassemblies short tag>  (107) 
A1 - monomer

>  <Crystalforms short tag>  (107) 
F2 - EVD68_Reference_20230131

>  <Centroid res>  (107) 
D68EV3CPROB-x1120/B/115/A_v1

>  <Experiment code>  (107) 
7go4

>  <Pose>  (107) 
7go4-b

$$$$
7gqe-a
     RDKit          3D

 13 14  0  0  0  0  0  0  0  0999 V2000
   13.0100   -3.8330   15.9920 C   0  0  0  0  0  0  0  0  0  0  0  0
   13.9210   -2.9820   16.6220 C   0  0  0  0  0  0  0  0  0  0  0  0
   15.1630   -3.6360   17.1580 C   0  0  0  0  0  0  0  0  0  0  0  0
   17.4340   -4.4140   16.5580 C   0  0  0  0  0  0  0  0  0  0  0  0
   17.8700   -5.1740   15.3620 C   0  0  0  0  0  0  0  0  0  0  0  0
   16.2890   -3.5060   16.4310 N   0  0  0  0  0  0  0  0  0  0  0  0
   13.6120   -1.6030   16.6770 C   0  0  0  0  0  0  0  0  0  0  0  0
   14.4020   -0.7030   17.3310 O   0  0  0  0  0  0  0  0  0  0  0  0
   12.4470   -1.1230   16.0780 C   0  0  0  0  0  0  0  0  0  0  0  0
   11.5830   -1.9940   15.4350 C   0  0  0  0  0  0  0  0  0  0  0  0
   11.8580   -3.3380   15.3990 C   0  0  0  0  0  0  0  0  0  0  0  0
   17.2030   -5.8750   16.4860 C   0  0  0  0  0  0  0  0  0  0  0  0
   15.1270   -4.2850   18.2000 O   0  0  0  0  0  0  0  0  0  0  0  0
  8  7  1  0
  5  4  1  0
  5 12  1  0
  9  7  2  0
  9 10  1  0
  6  4  1  0
  6  3  1  0
  7  2  1  0
  4 12  1  0
 10 11  2  0
  2  3  1  0
  2  1  2  0
 11  1  1  0
  3 13  2  0
M  END
>  <id>  (108) 
108

>  <inchikey>  (108) 
UWYBOEZQGCFECQ-UHFFFAOYSA-N

>  <alias>  (108) 
7gqe-a

>  <smiles>  (108) 
O=C(NC1CC1)c1ccccc1O

>  <path>  (108) 
/opt/xchem-fragalysis-2/maxwin/BulkDock/TARGETS/D68EV3C/aligned_files/7gqe-a/7gqe-a.pdb

>  <distance_score>  (108) 
None

>  <energy_score>  (108) 
None

>  <compound>  (108) 
UWYBOEZQGCFECQ-UHFFFAOYSA-N

>  <compound_id>  (108) 
89

>  <target>  (108) 
D68EV3C

>  <tags>  (108) 
['BAD count', '[Other] upload_1 2025-02-11', 'hits', 'MEDIOCRE count', 'Main status', 'GOOD count']

>  <inspirations>  (108) 
None

>  <subsites>  (108) 
None

>  <reference>  (108) 


>  <observation_longname>  (108) 
7gqe_B_201_v1

>  <ConformerSites alias>  (108) 
2a - 7gon/B/201

>  <CanonSites alias>  (108) 
2 - 7gon/B/201/1

>  <CrystalformSites alias>  (108) 
F2j - 7gqb/B/201/1

>  <Quatassemblies alias>  (108) 
A1 - monomer

>  <Crystalforms alias>  (108) 
F2 - EVD68_Reference_20230131

>  <ConformerSites upload name>  (108) 
2a - 7gon/B/201

>  <CanonSites upload name>  (108) 
2 - 7gon/B/201/1

>  <CrystalformSites upload name>  (108) 
F2j - 7gqb/B/201/1

>  <Quatassemblies upload name>  (108) 
A1 - monomer

>  <Crystalforms upload name>  (108) 
F2 - EVD68_Reference_20230131

>  <ConformerSites short tag>  (108) 
2a - 7gon/B/201

>  <CanonSites short tag>  (108) 
2 - 7gon/B/201/1

>  <CrystalformSites short tag>  (108) 
F2j - 7gqb/B/201/1

>  <Quatassemblies short tag>  (108) 
A1 - monomer

>  <Crystalforms short tag>  (108) 
F2 - EVD68_Reference_20230131

>  <Centroid res>  (108) 
7gon/B/47/B_v1

>  <Experiment code>  (108) 
7gqe

>  <Pose>  (108) 
7gqe-a

$$$$
7goc-a
     RDKit          3D

 14 14  0  0  0  0  0  0  0  0999 V2000
   15.8480  -10.7150   21.7380 C   0  0  0  0  0  0  0  0  0  0  0  0
   15.4700  -12.5690   20.1550 C   0  0  0  0  0  0  0  0  0  0  0  0
   15.9580  -12.0180   18.8180 C   0  0  0  0  0  0  0  0  0  0  0  0
   16.9980  -12.8950   18.1310 C   0  0  0  0  0  0  0  0  0  0  0  0
   14.9590  -14.6200   18.7020 C   0  0  0  0  0  0  0  0  0  0  0  0
   14.8630  -11.5070   20.9950 N   0  0  0  0  0  0  0  0  0  0  0  0
   13.6690  -14.6890   24.6890 C   0  0  0  0  0  0  0  0  0  0  0  0
   17.4070  -15.0940   19.4930 O   0  0  0  0  0  0  0  0  0  0  0  0
   14.1650  -13.6710   23.7650 C   0  0  0  0  0  0  0  0  0  0  0  0
   14.0160  -12.8480   22.9050 C   0  0  0  0  0  0  0  0  0  0  0  0
   13.7280  -11.8610   21.8510 C   0  0  0  0  0  0  0  0  0  0  0  0
   14.6160  -13.8190   19.9500 C   0  0  0  0  0  0  0  0  0  0  0  0
   16.9050  -15.2970   17.0890 O   0  0  0  0  0  0  0  0  0  0  0  0
   16.6870  -14.6220   18.3400 S   0  0  0  0  0  0  0  0  0  0  0  0
  4  3  1  0
  4 14  1  0
  3  2  1  0
 13 14  2  0
 14  8  2  0
 14  5  1  0
  1  6  1  0
  2  6  1  0
  2 12  1  0
  6 11  1  0
  5 12  1  0
 11 10  2  0
 10  9  2  0
  9  7  1  0
M  END
>  <id>  (109) 
109

>  <inchikey>  (109) 
IVNADMIGBJJJFW-UHFFFAOYSA-N

>  <alias>  (109) 
7goc-a

>  <smiles>  (109) 
CC=C=CN(C)C1CCS(=O)(=O)CC1

>  <path>  (109) 
/opt/xchem-fragalysis-2/maxwin/BulkDock/TARGETS/D68EV3C/aligned_files/7goc-a/7goc-a.pdb

>  <distance_score>  (109) 
None

>  <energy_score>  (109) 
None

>  <compound>  (109) 
IVNADMIGBJJJFW-UHFFFAOYSA-N

>  <compound_id>  (109) 
90

>  <target>  (109) 
D68EV3C

>  <tags>  (109) 
['BAD count', '[Other] upload_1 2025-02-11', 'hits', 'MEDIOCRE count', 'Main status', 'GOOD count']

>  <inspirations>  (109) 
None

>  <subsites>  (109) 
None

>  <reference>  (109) 


>  <observation_longname>  (109) 
7goc_B_201_v1

>  <ConformerSites alias>  (109) 
16a - 7goc/B/201

>  <CanonSites alias>  (109) 
16 - 7goc/B/201/1

>  <CrystalformSites alias>  (109) 
F2am - 7goc/B/201/1

>  <Quatassemblies alias>  (109) 
A1 - monomer

>  <Crystalforms alias>  (109) 
F2 - EVD68_Reference_20230131

>  <ConformerSites upload name>  (109) 
16a - 7goc/B/201

>  <CanonSites upload name>  (109) 
16 - 7goc/B/201/1

>  <CrystalformSites upload name>  (109) 
F2am - 7goc/B/201/1

>  <Quatassemblies upload name>  (109) 
A1 - monomer

>  <Crystalforms upload name>  (109) 
F2 - EVD68_Reference_20230131

>  <ConformerSites short tag>  (109) 
16a - 7goc/B/201

>  <CanonSites short tag>  (109) 
16 - 7goc/B/201/1

>  <CrystalformSites short tag>  (109) 
F2am - 7goc/B/201/1

>  <Quatassemblies short tag>  (109) 
A1 - monomer

>  <Crystalforms short tag>  (109) 
F2 - EVD68_Reference_20230131

>  <Centroid res>  (109) 
7goc/B/106/B_v1

>  <Experiment code>  (109) 
7goc

>  <Pose>  (109) 
7goc-a

$$$$
7gq8-a
     RDKit          3D

 11 11  0  0  0  0  0  0  0  0999 V2000
  -10.3550  -25.7450   30.1930 C   0  0  0  0  0  0  0  0  0  0  0  0
  -11.2440  -26.4120   26.6440 C   0  0  0  0  0  0  0  0  0  0  0  0
  -12.3910  -26.5600   25.8850 C   0  0  0  0  0  0  0  0  0  0  0  0
  -14.6360  -25.8580   25.3020 N   0  0  0  0  0  0  0  0  0  0  0  0
  -13.4570  -25.6710   26.0160 C   0  0  0  0  0  0  0  0  0  0  0  0
  -13.3160  -24.6010   26.8990 C   0  0  0  0  0  0  0  0  0  0  0  0
  -12.1660  -24.4440   27.6510 C   0  0  0  0  0  0  0  0  0  0  0  0
  -11.1250  -25.3530   27.5310 C   0  0  0  0  0  0  0  0  0  0  0  0
   -9.7330  -25.1240   31.2120 F   0  0  0  0  0  0  0  0  0  0  0  0
  -10.0570  -27.0460   30.3610 F   0  0  0  0  0  0  0  0  0  0  0  0
   -9.6530  -25.1640   28.5010 S   0  0  0  0  0  0  0  0  0  0  0  0
  7  6  2  0
  7  8  1  0
 11  8  1  0
 11  1  1  0
  6  5  1  0
  8  2  2  0
  2  3  1  0
  5  3  2  0
  5  4  1  0
  1  9  1  0
  1 10  1  0
M  END
>  <id>  (110) 
110

>  <inchikey>  (110) 
ODJCIHKBMUREOC-UHFFFAOYSA-N

>  <alias>  (110) 
7gq8-a

>  <smiles>  (110) 
Nc1ccc(SC(F)F)cc1

>  <path>  (110) 
/opt/xchem-fragalysis-2/maxwin/BulkDock/TARGETS/D68EV3C/aligned_files/7gq8-a/7gq8-a.pdb

>  <distance_score>  (110) 
None

>  <energy_score>  (110) 
None

>  <compound>  (110) 
ODJCIHKBMUREOC-UHFFFAOYSA-N

>  <compound_id>  (110) 
91

>  <target>  (110) 
D68EV3C

>  <tags>  (110) 
['BAD count', '[Other] upload_1 2025-02-11', 'hits', 'MEDIOCRE count', 'Main status', 'GOOD count']

>  <inspirations>  (110) 
None

>  <subsites>  (110) 
None

>  <reference>  (110) 


>  <observation_longname>  (110) 
7gq8_B_201_v1

>  <ConformerSites alias>  (110) 
5i - 7gq8/B/201

>  <CanonSites alias>  (110) 
5 - B1120/A/308/1

>  <CrystalformSites alias>  (110) 
F2r - 7goj/A/201/1

>  <Quatassemblies alias>  (110) 
A1 - monomer

>  <Crystalforms alias>  (110) 
F2 - EVD68_Reference_20230131

>  <ConformerSites upload name>  (110) 
5i - 7gq8/B/201

>  <CanonSites upload name>  (110) 
5 - D68EV3CPROB-x1120/A/308/1

>  <CrystalformSites upload name>  (110) 
F2r - 7goj/A/201/1

>  <Quatassemblies upload name>  (110) 
A1 - monomer

>  <Crystalforms upload name>  (110) 
F2 - EVD68_Reference_20230131

>  <ConformerSites short tag>  (110) 
5i - 7gq8/B/201

>  <CanonSites short tag>  (110) 
5 - B1120/A/308/1

>  <CrystalformSites short tag>  (110) 
F2r - 7goj/A/201/1

>  <Quatassemblies short tag>  (110) 
A1 - monomer

>  <Crystalforms short tag>  (110) 
F2 - EVD68_Reference_20230131

>  <Centroid res>  (110) 
D68EV3CPROB-x1120/B/115/A_v1

>  <Experiment code>  (110) 
7gq8

>  <Pose>  (110) 
7gq8-a

$$$$
7gph-a
     RDKit          3D

 13 13  0  0  0  0  0  0  0  0999 V2000
   13.3420   -1.1540   15.1390 C   0  0  0  0  0  0  0  0  0  0  0  0
   12.2170   -1.8700   14.7590 C   0  0  0  0  0  0  0  0  0  0  0  0
   11.9150   -3.0830   15.3540 C   0  0  0  0  0  0  0  0  0  0  0  0
   12.7400   -3.5980   16.3310 C   0  0  0  0  0  0  0  0  0  0  0  0
   13.8700   -2.9060   16.7070 C   0  0  0  0  0  0  0  0  0  0  0  0
   13.8180    1.6200   11.6100 C   0  0  0  0  0  0  0  0  0  0  0  0
   15.0600    1.6910   12.8450 S   0  0  0  0  0  0  0  0  0  0  0  0
   14.7720    2.7820   13.7390 O   0  0  0  0  0  0  0  0  0  0  0  0
   16.3520    1.6690   12.2130 O   0  0  0  0  0  0  0  0  0  0  0  0
   14.8620    0.2350   13.7010 C   0  0  0  0  0  0  0  0  0  0  0  0
   13.6160    0.2200   14.5650 C   0  0  2  0  0  0  0  0  0  0  0  0
   13.7440    1.1790   15.6090 O   0  0  0  0  0  0  0  0  0  0  0  0
   14.1710   -1.6920   16.1130 C   0  0  0  0  0  0  0  0  0  0  0  0
  5 13  1  0
  5  4  2  0
 13  1  2  0
  9  7  2  0
  4  3  1  0
  1 11  1  0
  1  2  1  0
 11 12  1  1
 11 10  1  0
  7  8  2  0
  7 10  1  0
  7  6  1  0
  3  2  2  0
M  END
>  <id>  (111) 
111

>  <inchikey>  (111) 
FVZQEVNJWREWHU-VIFPVBQESA-N

>  <alias>  (111) 
7gph-a

>  <smiles>  (111) 
CS(=O)(=O)C[C@H](O)c1ccccc1

>  <path>  (111) 
/opt/xchem-fragalysis-2/maxwin/BulkDock/TARGETS/D68EV3C/aligned_files/7gph-a/7gph-a.pdb

>  <distance_score>  (111) 
None

>  <energy_score>  (111) 
None

>  <compound>  (111) 
FVZQEVNJWREWHU-UHFFFAOYSA-N

>  <compound_id>  (111) 
92

>  <target>  (111) 
D68EV3C

>  <tags>  (111) 
['BAD count', '[Other] upload_1 2025-02-11', 'hits', 'MEDIOCRE count', 'Main status', 'GOOD count']

>  <inspirations>  (111) 
None

>  <subsites>  (111) 
None

>  <reference>  (111) 


>  <observation_longname>  (111) 
7gph_B_201_v1

>  <ConformerSites alias>  (111) 
2a - 7gon/B/201

>  <CanonSites alias>  (111) 
2 - 7gon/B/201/1

>  <CrystalformSites alias>  (111) 
F2j - 7gqb/B/201/1

>  <Quatassemblies alias>  (111) 
A1 - monomer

>  <Crystalforms alias>  (111) 
F2 - EVD68_Reference_20230131

>  <ConformerSites upload name>  (111) 
2a - 7gon/B/201

>  <CanonSites upload name>  (111) 
2 - 7gon/B/201/1

>  <CrystalformSites upload name>  (111) 
F2j - 7gqb/B/201/1

>  <Quatassemblies upload name>  (111) 
A1 - monomer

>  <Crystalforms upload name>  (111) 
F2 - EVD68_Reference_20230131

>  <ConformerSites short tag>  (111) 
2a - 7gon/B/201

>  <CanonSites short tag>  (111) 
2 - 7gon/B/201/1

>  <CrystalformSites short tag>  (111) 
F2j - 7gqb/B/201/1

>  <Quatassemblies short tag>  (111) 
A1 - monomer

>  <Crystalforms short tag>  (111) 
F2 - EVD68_Reference_20230131

>  <Centroid res>  (111) 
7gon/B/47/B_v1

>  <Experiment code>  (111) 
7gph

>  <Pose>  (111) 
7gph-a

$$$$
7go8-a
     RDKit          3D

 14 15  0  0  0  0  0  0  0  0999 V2000
  -12.2770  -25.0550   13.4260 N   0  0  0  0  0  0  0  0  0  0  0  0
  -13.4590  -24.4070   12.8250 C   0  0  0  0  0  0  0  0  0  0  0  0
  -14.3550  -25.4480   12.1620 C   0  0  0  0  0  0  0  0  0  0  0  0
  -15.6250  -24.7950   11.6740 C   0  0  0  0  0  0  0  0  0  0  0  0
  -15.5020  -23.0840   13.2730 C   0  0  0  0  0  0  0  0  0  0  0  0
  -14.2380  -23.6320   13.8840 C   0  0  0  0  0  0  0  0  0  0  0  0
  -12.4900  -25.7790   14.5720 N   0  0  0  0  0  0  0  0  0  0  0  0
  -10.3590  -24.3900   11.9050 C   0  0  0  0  0  0  0  0  0  0  0  0
  -11.1870  -24.2910   10.8980 O   0  0  0  0  0  0  0  0  0  0  0  0
  -10.9570  -25.0930   13.0340 C   0  0  0  0  0  0  0  0  0  0  0  0
  -10.3070  -25.8900   13.9580 C   0  0  0  0  0  0  0  0  0  0  0  0
  -11.2900  -26.2690   14.8670 C   0  0  0  0  0  0  0  0  0  0  0  0
   -9.1970  -23.9710   11.9000 O   0  0  0  0  0  0  0  0  0  0  0  0
  -16.3100  -24.1240   12.7330 O   0  0  0  0  0  0  0  0  0  0  0  0
 12 11  1  0
 12  7  2  0
 11 10  2  0
  7  1  1  0
  3  4  1  0
  3  2  1  0
 10  1  1  0
 10  8  1  0
  1  2  1  0
  4 14  1  0
  8  9  2  0
  8 13  1  0
  2  6  1  0
 14  5  1  0
  6  5  1  0
M  END
>  <id>  (112) 
112

>  <inchikey>  (112) 
CXJSIUBTTAXWQT-UHFFFAOYSA-N

>  <alias>  (112) 
7go8-a

>  <smiles>  (112) 
O=C(O)c1ccnn1C1CCOCC1

>  <path>  (112) 
/opt/xchem-fragalysis-2/maxwin/BulkDock/TARGETS/D68EV3C/aligned_files/7go8-a/7go8-a.pdb

>  <distance_score>  (112) 
None

>  <energy_score>  (112) 
None

>  <compound>  (112) 
CXJSIUBTTAXWQT-UHFFFAOYSA-N

>  <compound_id>  (112) 
93

>  <target>  (112) 
D68EV3C

>  <tags>  (112) 
['BAD count', '[Other] upload_1 2025-02-11', 'hits', 'MEDIOCRE count', 'Main status', 'GOOD count']

>  <inspirations>  (112) 
None

>  <subsites>  (112) 
None

>  <reference>  (112) 


>  <observation_longname>  (112) 
7go8_A_201_v1

>  <ConformerSites alias>  (112) 
4a - 7gp7/A/201

>  <CanonSites alias>  (112) 
4 - 7gp7/A/201/1

>  <CrystalformSites alias>  (112) 
F2q - 7gp7/A/201/1

>  <Quatassemblies alias>  (112) 
A1 - monomer

>  <Crystalforms alias>  (112) 
F2 - EVD68_Reference_20230131

>  <ConformerSites upload name>  (112) 
4a - 7gp7/A/201

>  <CanonSites upload name>  (112) 
4 - 7gp7/A/201/1

>  <CrystalformSites upload name>  (112) 
F2q - 7gp7/A/201/1

>  <Quatassemblies upload name>  (112) 
A1 - monomer

>  <Crystalforms upload name>  (112) 
F2 - EVD68_Reference_20230131

>  <ConformerSites short tag>  (112) 
4a - 7gp7/A/201

>  <CanonSites short tag>  (112) 
4 - 7gp7/A/201/1

>  <CrystalformSites short tag>  (112) 
F2q - 7gp7/A/201/1

>  <Quatassemblies short tag>  (112) 
A1 - monomer

>  <Crystalforms short tag>  (112) 
F2 - EVD68_Reference_20230131

>  <Centroid res>  (112) 
7gp7/A/6/A_v1

>  <Experiment code>  (112) 
7go8

>  <Pose>  (112) 
7go8-a

$$$$
7gqk-a
     RDKit          3D

 16 17  0  0  0  0  0  0  0  0999 V2000
   13.0050    3.2100   15.8760 C   0  0  0  0  0  0  0  0  0  0  0  0
   13.9030    3.7920   16.9560 C   0  0  0  0  0  0  0  0  0  0  0  0
   11.9520    0.9770   15.9750 C   0  0  0  0  0  0  0  0  0  0  0  0
   12.1020   -0.5130   16.0000 C   0  0  0  0  0  0  0  0  0  0  0  0
   11.4310   -1.3000   15.0640 C   0  0  0  0  0  0  0  0  0  0  0  0
   12.2810   -3.2910   16.0890 C   0  0  0  0  0  0  0  0  0  0  0  0
   13.0610    1.7430   15.8710 N   0  0  0  0  0  0  0  0  0  0  0  0
   16.2910    3.8670   17.8320 C   0  0  0  0  0  0  0  0  0  0  0  0
   15.5900    4.3610   18.9640 O   0  0  0  0  0  0  0  0  0  0  0  0
   15.3400    3.3100   16.7840 C   0  0  0  0  0  0  0  0  0  0  0  0
   12.9610   -2.5250   17.0090 C   0  0  0  0  0  0  0  0  0  0  0  0
   12.8750   -1.1420   16.9710 C   0  0  0  0  0  0  0  0  0  0  0  0
   15.3540    1.7860   16.7910 C   0  0  0  0  0  0  0  0  0  0  0  0
   14.4330    1.2380   15.7080 C   0  0  0  0  0  0  0  0  0  0  0  0
   11.5230   -2.6810   15.1130 C   0  0  0  0  0  0  0  0  0  0  0  0
   10.8330    1.4640   15.9980 O   0  0  0  0  0  0  0  0  0  0  0  0
  8 10  1  0
  8  9  1  0
 10  2  1  0
 10 13  1  0
  2  1  1  0
  1  7  1  0
 14 13  1  0
 14  7  1  0
  7  3  1  0
  3 16  2  0
  3  4  1  0
  4  5  2  0
  4 12  1  0
  5 15  1  0
 12 11  2  0
 15  6  2  0
 11  6  1  0
M  END
>  <id>  (113) 
113

>  <inchikey>  (113) 
RLTIVBMLQJFUOB-UHFFFAOYSA-N

>  <alias>  (113) 
7gqk-a

>  <smiles>  (113) 
O=C(c1ccccc1)N1CCC(CO)CC1

>  <path>  (113) 
/opt/xchem-fragalysis-2/maxwin/BulkDock/TARGETS/D68EV3C/aligned_files/7gqk-a/7gqk-a.pdb

>  <distance_score>  (113) 
None

>  <energy_score>  (113) 
None

>  <compound>  (113) 
RLTIVBMLQJFUOB-UHFFFAOYSA-N

>  <compound_id>  (113) 
94

>  <target>  (113) 
D68EV3C

>  <tags>  (113) 
['BAD count', '[Other] upload_1 2025-02-11', 'hits', 'MEDIOCRE count', 'Main status', 'GOOD count']

>  <inspirations>  (113) 
None

>  <subsites>  (113) 
None

>  <reference>  (113) 


>  <observation_longname>  (113) 
7gqk_B_201_v1

>  <ConformerSites alias>  (113) 
2a - 7gon/B/201

>  <CanonSites alias>  (113) 
2 - 7gon/B/201/1

>  <CrystalformSites alias>  (113) 
F2j - 7gqb/B/201/1

>  <Quatassemblies alias>  (113) 
A1 - monomer

>  <Crystalforms alias>  (113) 
F2 - EVD68_Reference_20230131

>  <ConformerSites upload name>  (113) 
2a - 7gon/B/201

>  <CanonSites upload name>  (113) 
2 - 7gon/B/201/1

>  <CrystalformSites upload name>  (113) 
F2j - 7gqb/B/201/1

>  <Quatassemblies upload name>  (113) 
A1 - monomer

>  <Crystalforms upload name>  (113) 
F2 - EVD68_Reference_20230131

>  <ConformerSites short tag>  (113) 
2a - 7gon/B/201

>  <CanonSites short tag>  (113) 
2 - 7gon/B/201/1

>  <CrystalformSites short tag>  (113) 
F2j - 7gqb/B/201/1

>  <Quatassemblies short tag>  (113) 
A1 - monomer

>  <Crystalforms short tag>  (113) 
F2 - EVD68_Reference_20230131

>  <Centroid res>  (113) 
7gon/B/47/B_v1

>  <Experiment code>  (113) 
7gqk

>  <Pose>  (113) 
7gqk-a

$$$$
7gqn-a
     RDKit          3D

  6  6  0  0  0  0  0  0  0  0999 V2000
   11.7930   -0.8170   15.8800 N   0  0  0  0  0  0  0  0  0  0  0  0
   11.7020   -2.5440   14.5060 N   0  0  0  0  0  0  0  0  0  0  0  0
   12.9110   -1.5850   16.0290 C   0  0  0  0  0  0  0  0  0  0  0  0
   12.8760   -2.6590   15.1980 C   0  0  0  0  0  0  0  0  0  0  0  0
   11.0920   -1.4360   14.9450 C   0  0  0  0  0  0  0  0  0  0  0  0
   14.4280   -1.0690   17.3400 I   0  0  0  0  0  0  0  0  0  0  0  0
  1  5  1  0
  1  3  1  0
  5  2  2  0
  6  3  1  0
  3  4  2  0
  2  4  1  0
M  END
>  <id>  (114) 
114

>  <inchikey>  (114) 
BHCMXJKPZOPRNN-UHFFFAOYSA-N

>  <alias>  (114) 
7gqn-a

>  <smiles>  (114) 
Ic1cnc[nH]1

>  <path>  (114) 
/opt/xchem-fragalysis-2/maxwin/BulkDock/TARGETS/D68EV3C/aligned_files/7gqn-a/7gqn-a_hippo.pdb

>  <distance_score>  (114) 
None

>  <energy_score>  (114) 
None

>  <compound>  (114) 
BHCMXJKPZOPRNN-UHFFFAOYSA-N

>  <compound_id>  (114) 
95

>  <target>  (114) 
D68EV3C

>  <tags>  (114) 
['BAD count', '[Other] upload_1 2025-02-11', 'hits', 'MEDIOCRE count', 'Main status', 'GOOD count']

>  <inspirations>  (114) 
None

>  <subsites>  (114) 
None

>  <reference>  (114) 


>  <observation_longname>  (114) 
7gqn_B_201_v1

>  <ConformerSites alias>  (114) 
2a - 7gon/B/201

>  <CanonSites alias>  (114) 
2 - 7gon/B/201/1

>  <CrystalformSites alias>  (114) 
F2j - 7gqb/B/201/1

>  <Quatassemblies alias>  (114) 
A1 - monomer

>  <Crystalforms alias>  (114) 
F2 - EVD68_Reference_20230131

>  <ConformerSites upload name>  (114) 
2a - 7gon/B/201

>  <CanonSites upload name>  (114) 
2 - 7gon/B/201/1

>  <CrystalformSites upload name>  (114) 
F2j - 7gqb/B/201/1

>  <Quatassemblies upload name>  (114) 
A1 - monomer

>  <Crystalforms upload name>  (114) 
F2 - EVD68_Reference_20230131

>  <ConformerSites short tag>  (114) 
2a - 7gon/B/201

>  <CanonSites short tag>  (114) 
2 - 7gon/B/201/1

>  <CrystalformSites short tag>  (114) 
F2j - 7gqb/B/201/1

>  <Quatassemblies short tag>  (114) 
A1 - monomer

>  <Crystalforms short tag>  (114) 
F2 - EVD68_Reference_20230131

>  <Centroid res>  (114) 
7gon/B/47/B_v1

>  <Experiment code>  (114) 
7gqn

>  <Pose>  (114) 
7gqn-a

$$$$
7gqn-b
     RDKit          3D

  6  6  0  0  0  0  0  0  0  0999 V2000
   -9.4180  -26.4540   30.8500 N   0  0  0  0  0  0  0  0  0  0  0  0
  -10.4200  -25.1710   32.3350 N   0  0  0  0  0  0  0  0  0  0  0  0
  -10.3650  -25.6970   30.2290 C   0  0  0  0  0  0  0  0  0  0  0  0
  -11.0020  -24.9070   31.1290 C   0  0  0  0  0  0  0  0  0  0  0  0
   -9.4810  -26.0950   32.1250 C   0  0  0  0  0  0  0  0  0  0  0  0
  -10.6650  -25.7430   28.1820 I   0  0  0  0  0  0  0  0  0  0  0  0
  1  5  1  0
  1  3  1  0
  5  2  2  0
  6  3  1  0
  3  4  2  0
  2  4  1  0
M  END
>  <id>  (115) 
115

>  <inchikey>  (115) 
BHCMXJKPZOPRNN-UHFFFAOYSA-N

>  <alias>  (115) 
7gqn-b

>  <smiles>  (115) 
Ic1cnc[nH]1

>  <path>  (115) 
/opt/xchem-fragalysis-2/maxwin/BulkDock/TARGETS/D68EV3C/aligned_files/7gqn-b/7gqn-b.pdb

>  <distance_score>  (115) 
None

>  <energy_score>  (115) 
None

>  <compound>  (115) 
BHCMXJKPZOPRNN-UHFFFAOYSA-N

>  <compound_id>  (115) 
95

>  <target>  (115) 
D68EV3C

>  <tags>  (115) 
['BAD count', '[Other] upload_1 2025-02-11', 'hits', 'MEDIOCRE count', 'Main status', 'GOOD count']

>  <inspirations>  (115) 
None

>  <subsites>  (115) 
None

>  <reference>  (115) 


>  <observation_longname>  (115) 
7gqn_A_201_v1

>  <ConformerSites alias>  (115) 
28a - 7gqn/A/201

>  <CanonSites alias>  (115) 
28 - 7gqn/A/201/1

>  <CrystalformSites alias>  (115) 
F2ay - 7gqn/A/201/1

>  <Quatassemblies alias>  (115) 
A1 - monomer

>  <Crystalforms alias>  (115) 
F2 - EVD68_Reference_20230131

>  <ConformerSites upload name>  (115) 
28a - 7gqn/A/201

>  <CanonSites upload name>  (115) 
28 - 7gqn/A/201/1

>  <CrystalformSites upload name>  (115) 
F2ay - 7gqn/A/201/1

>  <Quatassemblies upload name>  (115) 
A1 - monomer

>  <Crystalforms upload name>  (115) 
F2 - EVD68_Reference_20230131

>  <ConformerSites short tag>  (115) 
28a - 7gqn/A/201

>  <CanonSites short tag>  (115) 
28 - 7gqn/A/201/1

>  <CrystalformSites short tag>  (115) 
F2ay - 7gqn/A/201/1

>  <Quatassemblies short tag>  (115) 
A1 - monomer

>  <Crystalforms short tag>  (115) 
F2 - EVD68_Reference_20230131

>  <Centroid res>  (115) 
7gqn/B/115/A_v1

>  <Experiment code>  (115) 
7gqn

>  <Pose>  (115) 
7gqn-b

$$$$
7gqn-c
     RDKit          3D

  6  6  0  0  0  0  0  0  0  0999 V2000
   -1.5680  -13.8920   28.4200 N   0  0  0  0  0  0  0  0  0  0  0  0
   -1.4380  -12.1510   27.0620 N   0  0  0  0  0  0  0  0  0  0  0  0
   -0.7920  -12.9130   28.9710 C   0  0  0  0  0  0  0  0  0  0  0  0
   -0.7000  -11.8310   28.1620 C   0  0  0  0  0  0  0  0  0  0  0  0
   -1.9240  -13.3830   27.2520 C   0  0  0  0  0  0  0  0  0  0  0  0
    0.1500  -13.1760   30.7910 I   0  0  0  0  0  0  0  0  0  0  0  0
  1  5  1  0
  1  3  1  0
  5  2  2  0
  6  3  1  0
  3  4  2  0
  2  4  1  0
M  END
>  <id>  (116) 
116

>  <inchikey>  (116) 
BHCMXJKPZOPRNN-UHFFFAOYSA-N

>  <alias>  (116) 
7gqn-c

>  <smiles>  (116) 
Ic1cnc[nH]1

>  <path>  (116) 
/opt/xchem-fragalysis-2/maxwin/BulkDock/TARGETS/D68EV3C/aligned_files/7gqn-c/7gqn-c.pdb

>  <distance_score>  (116) 
None

>  <energy_score>  (116) 
None

>  <compound>  (116) 
BHCMXJKPZOPRNN-UHFFFAOYSA-N

>  <compound_id>  (116) 
95

>  <target>  (116) 
D68EV3C

>  <tags>  (116) 
['BAD count', '[Other] upload_1 2025-02-11', 'hits', 'MEDIOCRE count', 'Main status', 'GOOD count']

>  <inspirations>  (116) 
None

>  <subsites>  (116) 
None

>  <reference>  (116) 


>  <observation_longname>  (116) 
7gqn_A_202_v1

>  <ConformerSites alias>  (116) 
29a - 7gqn/A/202

>  <CanonSites alias>  (116) 
29 - 7gqn/A/202/1

>  <CrystalformSites alias>  (116) 
F2az - 7gqn/A/202/1

>  <Quatassemblies alias>  (116) 
A1 - monomer

>  <Crystalforms alias>  (116) 
F2 - EVD68_Reference_20230131

>  <ConformerSites upload name>  (116) 
29a - 7gqn/A/202

>  <CanonSites upload name>  (116) 
29 - 7gqn/A/202/1

>  <CrystalformSites upload name>  (116) 
F2az - 7gqn/A/202/1

>  <Quatassemblies upload name>  (116) 
A1 - monomer

>  <Crystalforms upload name>  (116) 
F2 - EVD68_Reference_20230131

>  <ConformerSites short tag>  (116) 
29a - 7gqn/A/202

>  <CanonSites short tag>  (116) 
29 - 7gqn/A/202/1

>  <CrystalformSites short tag>  (116) 
F2az - 7gqn/A/202/1

>  <Quatassemblies short tag>  (116) 
A1 - monomer

>  <Crystalforms short tag>  (116) 
F2 - EVD68_Reference_20230131

>  <Centroid res>  (116) 
7gqn/A/149/A_v1

>  <Experiment code>  (116) 
7gqn

>  <Pose>  (116) 
7gqn-c

$$$$
7gpd-a
     RDKit          3D

 16 16  0  0  0  0  0  0  0  0999 V2000
   15.7180   -0.4660   18.7200 N   0  0  0  0  0  0  0  0  0  0  0  0
   15.1640    0.1780   20.9760 C   0  0  0  0  0  0  0  0  0  0  0  0
   14.5900   -0.5350   17.9750 C   0  0  0  0  0  0  0  0  0  0  0  0
   13.5120   -1.9470   16.2520 C   0  0  0  0  0  0  0  0  0  0  0  0
   13.0000   -1.0830   15.2950 C   0  0  0  0  0  0  0  0  0  0  0  0
   11.9280   -1.4800   14.5140 C   0  0  0  0  0  0  0  0  0  0  0  0
   11.8730   -3.5830   15.6320 C   0  0  0  0  0  0  0  0  0  0  0  0
   17.4950    0.4630   20.1030 C   0  0  0  0  0  0  0  0  0  0  0  0
   16.0100    0.5400   19.7580 C   0  0  0  0  0  0  0  0  0  0  0  0
   15.6510    1.9340   19.2510 C   0  0  0  0  0  0  0  0  0  0  0  0
   16.3720    2.9920   19.8650 O   0  0  0  0  0  0  0  0  0  0  0  0
   14.9670   -1.2240   21.1230 O   0  0  0  0  0  0  0  0  0  0  0  0
   13.6850    0.2960   18.0340 O   0  0  0  0  0  0  0  0  0  0  0  0
   14.5690   -1.5940   17.1120 N   0  0  0  0  0  0  0  0  0  0  0  0
   11.3670   -2.7270   14.6830 C   0  0  0  0  0  0  0  0  0  0  0  0
   12.9460   -3.2040   16.4160 C   0  0  0  0  0  0  0  0  0  0  0  0
  6 15  2  0
  6  5  1  0
 15  7  1  0
  5  4  2  0
  7 16  2  0
  4 16  1  0
  4 14  1  0
 14  3  1  0
 12  2  1  0
  1  3  1  0
  1  9  1  0
  3 13  2  0
 11 10  1  0
  2  9  1  0
  9 10  1  0
  9  8  1  0
M  END
>  <id>  (117) 
117

>  <inchikey>  (117) 
NLGYHTMGWVQQIL-UHFFFAOYSA-N

>  <alias>  (117) 
7gpd-a

>  <smiles>  (117) 
CC(CO)(CO)NC(=O)Nc1ccccc1

>  <path>  (117) 
/opt/xchem-fragalysis-2/maxwin/BulkDock/TARGETS/D68EV3C/aligned_files/7gpd-a/7gpd-a.pdb

>  <distance_score>  (117) 
None

>  <energy_score>  (117) 
None

>  <compound>  (117) 
NLGYHTMGWVQQIL-UHFFFAOYSA-N

>  <compound_id>  (117) 
96

>  <target>  (117) 
D68EV3C

>  <tags>  (117) 
['BAD count', '[Other] upload_1 2025-02-11', 'hits', 'MEDIOCRE count', 'Main status', 'GOOD count']

>  <inspirations>  (117) 
None

>  <subsites>  (117) 
None

>  <reference>  (117) 


>  <observation_longname>  (117) 
7gpd_B_201_v1

>  <ConformerSites alias>  (117) 
2a - 7gon/B/201

>  <CanonSites alias>  (117) 
2 - 7gon/B/201/1

>  <CrystalformSites alias>  (117) 
F2j - 7gqb/B/201/1

>  <Quatassemblies alias>  (117) 
A1 - monomer

>  <Crystalforms alias>  (117) 
F2 - EVD68_Reference_20230131

>  <ConformerSites upload name>  (117) 
2a - 7gon/B/201

>  <CanonSites upload name>  (117) 
2 - 7gon/B/201/1

>  <CrystalformSites upload name>  (117) 
F2j - 7gqb/B/201/1

>  <Quatassemblies upload name>  (117) 
A1 - monomer

>  <Crystalforms upload name>  (117) 
F2 - EVD68_Reference_20230131

>  <ConformerSites short tag>  (117) 
2a - 7gon/B/201

>  <CanonSites short tag>  (117) 
2 - 7gon/B/201/1

>  <CrystalformSites short tag>  (117) 
F2j - 7gqb/B/201/1

>  <Quatassemblies short tag>  (117) 
A1 - monomer

>  <Crystalforms short tag>  (117) 
F2 - EVD68_Reference_20230131

>  <Centroid res>  (117) 
7gon/B/47/B_v1

>  <Experiment code>  (117) 
7gpd

>  <Pose>  (117) 
7gpd-a

$$$$
7gpa-a
     RDKit          3D

 12 12  0  0  0  0  0  0  0  0999 V2000
   11.6870   -3.0420   15.3630 C   0  0  0  0  0  0  0  0  0  0  0  0
   12.5290   -3.3170   16.4090 C   0  0  0  0  0  0  0  0  0  0  0  0
   13.4140   -2.4040   16.9140 C   0  0  0  0  0  0  0  0  0  0  0  0
   13.4160   -1.1280   16.3860 C   0  0  0  0  0  0  0  0  0  0  0  0
   10.9440    1.5710   13.6550 C   0  0  0  0  0  0  0  0  0  0  0  0
   10.5810    1.9260   12.4380 O   0  0  0  0  0  0  0  0  0  0  0  0
   12.3120    0.9420   13.7040 C   0  0  0  0  0  0  0  0  0  0  0  0
   12.5490   -0.8080   15.3600 C   0  0  0  0  0  0  0  0  0  0  0  0
   11.6990   -1.7670   14.8310 C   0  0  0  0  0  0  0  0  0  0  0  0
   12.4220   -4.5170   17.0310 F   0  0  0  0  0  0  0  0  0  0  0  0
   10.2710    1.7470   14.6620 O   0  0  0  0  0  0  0  0  0  0  0  0
   12.6140    0.5250   15.0430 O   0  0  0  0  0  0  0  0  0  0  0  0
  6  5  2  0
  7  5  1  0
  7 12  1  0
  5 11  1  0
 12  8  1  0
  8  4  2  0
  8  9  1  0
  4  3  1  0
  9  1  2  0
  3  2  2  0
  1  2  1  0
  2 10  1  0
M  END
>  <id>  (118) 
118

>  <inchikey>  (118) 
ZBIULCVFFJJYTN-UHFFFAOYSA-N

>  <alias>  (118) 
7gpa-a

>  <smiles>  (118) 
O=C(O)COc1ccc(F)cc1

>  <path>  (118) 
/opt/xchem-fragalysis-2/maxwin/BulkDock/TARGETS/D68EV3C/aligned_files/7gpa-a/7gpa-a.pdb

>  <distance_score>  (118) 
None

>  <energy_score>  (118) 
None

>  <compound>  (118) 
ZBIULCVFFJJYTN-UHFFFAOYSA-N

>  <compound_id>  (118) 
97

>  <target>  (118) 
D68EV3C

>  <tags>  (118) 
['BAD count', '[Other] upload_1 2025-02-11', 'hits', 'MEDIOCRE count', 'Main status', 'GOOD count']

>  <inspirations>  (118) 
None

>  <subsites>  (118) 
None

>  <reference>  (118) 


>  <observation_longname>  (118) 
7gpa_B_201_v1

>  <ConformerSites alias>  (118) 
2a - 7gon/B/201

>  <CanonSites alias>  (118) 
2 - 7gon/B/201/1

>  <CrystalformSites alias>  (118) 
F2j - 7gqb/B/201/1

>  <Quatassemblies alias>  (118) 
A1 - monomer

>  <Crystalforms alias>  (118) 
F2 - EVD68_Reference_20230131

>  <ConformerSites upload name>  (118) 
2a - 7gon/B/201

>  <CanonSites upload name>  (118) 
2 - 7gon/B/201/1

>  <CrystalformSites upload name>  (118) 
F2j - 7gqb/B/201/1

>  <Quatassemblies upload name>  (118) 
A1 - monomer

>  <Crystalforms upload name>  (118) 
F2 - EVD68_Reference_20230131

>  <ConformerSites short tag>  (118) 
2a - 7gon/B/201

>  <CanonSites short tag>  (118) 
2 - 7gon/B/201/1

>  <CrystalformSites short tag>  (118) 
F2j - 7gqb/B/201/1

>  <Quatassemblies short tag>  (118) 
A1 - monomer

>  <Crystalforms short tag>  (118) 
F2 - EVD68_Reference_20230131

>  <Centroid res>  (118) 
7gon/B/47/B_v1

>  <Experiment code>  (118) 
7gpa

>  <Pose>  (118) 
7gpa-a

$$$$
7gpe-a
     RDKit          3D

 12 13  0  0  0  0  0  0  0  0999 V2000
  -12.1750  -22.8530   28.0030 N   0  0  0  0  0  0  0  0  0  0  0  0
   -9.6340  -24.1230   30.3720 C   0  0  0  0  0  0  0  0  0  0  0  0
   -9.1980  -24.0440   31.6830 C   0  0  0  0  0  0  0  0  0  0  0  0
  -11.1060  -23.3670   28.5240 C   0  0  0  0  0  0  0  0  0  0  0  0
  -12.1960  -23.3200   26.7310 C   0  0  0  0  0  0  0  0  0  0  0  0
   -9.3090  -23.0230   33.8710 N   0  0  0  0  0  0  0  0  0  0  0  0
   -9.7530  -23.1140   32.5660 C   0  0  0  0  0  0  0  0  0  0  0  0
  -10.4080  -24.1260   27.6640 O   0  0  0  0  0  0  0  0  0  0  0  0
  -10.7640  -22.2760   32.0950 C   0  0  0  0  0  0  0  0  0  0  0  0
  -11.2040  -22.3660   30.7860 C   0  0  0  0  0  0  0  0  0  0  0  0
  -10.6380  -23.2820   29.9060 C   0  0  0  0  0  0  0  0  0  0  0  0
  -11.1300  -24.1060   26.4480 N   0  0  0  0  0  0  0  0  0  0  0  0
 12  5  2  0
 12  8  1  0
  5  1  1  0
  8  4  1  0
  1  4  2  0
  4 11  1  0
 11 10  1  0
 11  2  2  0
 10  9  2  0
  2  3  1  0
  9  7  1  0
  3  7  2  0
  7  6  1  0
M  END
>  <id>  (119) 
119

>  <inchikey>  (119) 
LKIGQRFSSGGKQW-UHFFFAOYSA-N

>  <alias>  (119) 
7gpe-a

>  <smiles>  (119) 
Nc1ccc(-c2ncno2)cc1

>  <path>  (119) 
/opt/xchem-fragalysis-2/maxwin/BulkDock/TARGETS/D68EV3C/aligned_files/7gpe-a/7gpe-a.pdb

>  <distance_score>  (119) 
None

>  <energy_score>  (119) 
None

>  <compound>  (119) 
LKIGQRFSSGGKQW-UHFFFAOYSA-N

>  <compound_id>  (119) 
98

>  <target>  (119) 
D68EV3C

>  <tags>  (119) 
['BAD count', '[Other] upload_1 2025-02-11', 'hits', 'MEDIOCRE count', 'Main status', 'GOOD count']

>  <inspirations>  (119) 
None

>  <subsites>  (119) 
None

>  <reference>  (119) 


>  <observation_longname>  (119) 
7gpe_A_201_v1

>  <ConformerSites alias>  (119) 
4a - 7gp7/A/201

>  <CanonSites alias>  (119) 
4 - 7gp7/A/201/1

>  <CrystalformSites alias>  (119) 
F2p - 7gp4/A/201/1

>  <Quatassemblies alias>  (119) 
A1 - monomer

>  <Crystalforms alias>  (119) 
F2 - EVD68_Reference_20230131

>  <ConformerSites upload name>  (119) 
4a - 7gp7/A/201

>  <CanonSites upload name>  (119) 
4 - 7gp7/A/201/1

>  <CrystalformSites upload name>  (119) 
F2p - 7gp4/A/201/1

>  <Quatassemblies upload name>  (119) 
A1 - monomer

>  <Crystalforms upload name>  (119) 
F2 - EVD68_Reference_20230131

>  <ConformerSites short tag>  (119) 
4a - 7gp7/A/201

>  <CanonSites short tag>  (119) 
4 - 7gp7/A/201/1

>  <CrystalformSites short tag>  (119) 
F2p - 7gp4/A/201/1

>  <Quatassemblies short tag>  (119) 
A1 - monomer

>  <Crystalforms short tag>  (119) 
F2 - EVD68_Reference_20230131

>  <Centroid res>  (119) 
7gp7/A/6/A_v1

>  <Experiment code>  (119) 
7gpe

>  <Pose>  (119) 
7gpe-a

$$$$
7gpk-b
     RDKit          3D

 13 14  0  0  0  0  0  0  0  0999 V2000
   15.2030    1.7170   13.1750 C   0  0  0  0  0  0  0  0  0  0  0  0
   14.1140    2.7470   12.9700 C   0  0  0  0  0  0  0  0  0  0  0  0
   13.6310    3.2750   14.3020 C   0  0  0  0  0  0  0  0  0  0  0  0
   13.9670    2.3030   15.4150 C   0  0  0  0  0  0  0  0  0  0  0  0
   13.7310    0.0090   16.1270 C   0  0  0  0  0  0  0  0  0  0  0  0
   13.0090   -1.2780   15.8360 C   0  0  0  0  0  0  0  0  0  0  0  0
   13.3380   -2.5580   16.3590 C   0  0  0  0  0  0  0  0  0  0  0  0
   12.4950   -3.5220   15.9730 C   0  0  0  0  0  0  0  0  0  0  0  0
   11.9080   -1.3250   15.0380 C   0  0  0  0  0  0  0  0  0  0  0  0
   14.6720    0.5140   13.9550 C   0  0  0  0  0  0  0  0  0  0  0  0
   13.7030    0.9240   14.9910 N   0  0  0  0  0  0  0  0  0  0  0  0
   14.5750    3.8200   12.1510 O   0  0  0  0  0  0  0  0  0  0  0  0
   11.2880   -2.8900   14.9380 S   0  0  0  0  0  0  0  0  0  0  0  0
  2 12  1  0
  3  2  1  0
  4  3  1  0
 11  4  1  0
  6  5  1  0
  7  6  1  0
  8  7  2  0
 13  8  1  0
  9 13  1  0
  5 11  1  0
 10 11  1  0
  1 10  1  0
  2  1  1  0
  6  9  2  0
M  END
>  <id>  (120) 
120

>  <inchikey>  (120) 
JQJVNJKLFUBEBG-UHFFFAOYSA-N

>  <alias>  (120) 
7gpk-b

>  <smiles>  (120) 
OC1CCN(Cc2ccsc2)CC1

>  <path>  (120) 
/opt/xchem-fragalysis-2/maxwin/BulkDock/TARGETS/D68EV3C/aligned_files/7gpk-b/7gpk-b.pdb

>  <distance_score>  (120) 
None

>  <energy_score>  (120) 
None

>  <compound>  (120) 
JQJVNJKLFUBEBG-UHFFFAOYSA-N

>  <compound_id>  (120) 
99

>  <target>  (120) 
D68EV3C

>  <tags>  (120) 
['BAD count', '[Other] upload_1 2025-02-11', 'hits', 'MEDIOCRE count', 'Main status', 'GOOD count']

>  <inspirations>  (120) 
None

>  <subsites>  (120) 
None

>  <reference>  (120) 


>  <observation_longname>  (120) 
7gpk_B_201_v1

>  <ConformerSites alias>  (120) 
2a - 7gon/B/201

>  <CanonSites alias>  (120) 
2 - 7gon/B/201/1

>  <CrystalformSites alias>  (120) 
F2j - 7gqb/B/201/1

>  <Quatassemblies alias>  (120) 
A1 - monomer

>  <Crystalforms alias>  (120) 
F2 - EVD68_Reference_20230131

>  <ConformerSites upload name>  (120) 
2a - 7gon/B/201

>  <CanonSites upload name>  (120) 
2 - 7gon/B/201/1

>  <CrystalformSites upload name>  (120) 
F2j - 7gqb/B/201/1

>  <Quatassemblies upload name>  (120) 
A1 - monomer

>  <Crystalforms upload name>  (120) 
F2 - EVD68_Reference_20230131

>  <ConformerSites short tag>  (120) 
2a - 7gon/B/201

>  <CanonSites short tag>  (120) 
2 - 7gon/B/201/1

>  <CrystalformSites short tag>  (120) 
F2j - 7gqb/B/201/1

>  <Quatassemblies short tag>  (120) 
A1 - monomer

>  <Crystalforms short tag>  (120) 
F2 - EVD68_Reference_20230131

>  <Centroid res>  (120) 
7gon/B/47/B_v1

>  <Experiment code>  (120) 
7gpk

>  <Pose>  (120) 
7gpk-b

$$$$
7gpk-a
     RDKit          3D

 13 14  0  0  0  0  0  0  0  0999 V2000
   -4.9440   -0.2230   33.5090 C   0  0  0  0  0  0  0  0  0  0  0  0
   -4.7000   -1.6960   33.7060 C   0  0  0  0  0  0  0  0  0  0  0  0
   -4.6170   -2.0090   35.1790 C   0  0  0  0  0  0  0  0  0  0  0  0
   -5.2290   -0.8850   36.0070 C   0  0  0  0  0  0  0  0  0  0  0  0
   -7.1680    0.5450   36.3250 C   0  0  0  0  0  0  0  0  0  0  0  0
   -8.4380    0.0600   36.9780 C   0  0  0  0  0  0  0  0  0  0  0  0
   -9.0250    0.6410   38.1460 C   0  0  0  0  0  0  0  0  0  0  0  0
  -10.1990    0.0410   38.5260 C   0  0  0  0  0  0  0  0  0  0  0  0
   -9.1870   -0.9790   36.4970 C   0  0  0  0  0  0  0  0  0  0  0  0
   -6.2790    0.1890   34.1130 C   0  0  0  0  0  0  0  0  0  0  0  0
   -6.5080   -0.4170   35.4350 N   0  0  0  0  0  0  0  0  0  0  0  0
   -5.7610   -2.4380   33.1170 O   0  0  0  0  0  0  0  0  0  0  0  0
  -10.5850   -1.2610   37.4330 S   0  0  0  0  0  0  0  0  0  0  0  0
  2 12  1  0
  3  2  1  0
  4  3  1  0
 11  4  1  0
  6  5  1  0
  7  6  1  0
  8  7  2  0
 13  8  1  0
  9 13  1  0
  5 11  1  0
 10 11  1  0
  1 10  1  0
  2  1  1  0
  6  9  2  0
M  END
>  <id>  (121) 
121

>  <inchikey>  (121) 
JQJVNJKLFUBEBG-UHFFFAOYSA-N

>  <alias>  (121) 
7gpk-a

>  <smiles>  (121) 
OC1CCN(Cc2ccsc2)CC1

>  <path>  (121) 
/opt/xchem-fragalysis-2/maxwin/BulkDock/TARGETS/D68EV3C/aligned_files/7gpk-a/7gpk-a.pdb

>  <distance_score>  (121) 
None

>  <energy_score>  (121) 
None

>  <compound>  (121) 
JQJVNJKLFUBEBG-UHFFFAOYSA-N

>  <compound_id>  (121) 
99

>  <target>  (121) 
D68EV3C

>  <tags>  (121) 
['BAD count', '[Other] upload_1 2025-02-11', '[Other] iter1_frags', 'hits', 'MEDIOCRE count', 'Main status', 'GOOD count']

>  <inspirations>  (121) 
None

>  <subsites>  (121) 
None

>  <reference>  (121) 


>  <observation_longname>  (121) 
7gpk_B_202_v1

>  <ConformerSites alias>  (121) 
1a - 7gp9/A/201

>  <CanonSites alias>  (121) 
1 - 7gp9/A/201/1

>  <CrystalformSites alias>  (121) 
F2c - 7gpk/B/202/1

>  <Quatassemblies alias>  (121) 
A1 - monomer

>  <Crystalforms alias>  (121) 
F2 - EVD68_Reference_20230131

>  <ConformerSites upload name>  (121) 
1a - 7gp9/A/201

>  <CanonSites upload name>  (121) 
1 - 7gp9/A/201/1

>  <CrystalformSites upload name>  (121) 
F2c - 7gpk/B/202/1

>  <Quatassemblies upload name>  (121) 
A1 - monomer

>  <Crystalforms upload name>  (121) 
F2 - EVD68_Reference_20230131

>  <ConformerSites short tag>  (121) 
1a - 7gp9/A/201

>  <CanonSites short tag>  (121) 
1 - 7gp9/A/201/1

>  <CrystalformSites short tag>  (121) 
F2c - 7gpk/B/202/1

>  <Quatassemblies short tag>  (121) 
A1 - monomer

>  <Crystalforms short tag>  (121) 
F2 - EVD68_Reference_20230131

>  <Centroid res>  (121) 
7gp9/A/163/A_v1

>  <Experiment code>  (121) 
7gpk

>  <Pose>  (121) 
7gpk-a

$$$$
7gq3-a
     RDKit          3D

  6  6  0  0  0  0  0  0  0  0999 V2000
   11.8550   -1.0130   14.0510 N   0  0  0  0  0  0  0  0  0  0  0  0
   12.2060   -1.8270   15.0350 C   0  0  0  0  0  0  0  0  0  0  0  0
   11.6390   -3.0010   15.2330 N   0  0  0  0  0  0  0  0  0  0  0  0
   12.2850   -3.5020   16.3090 N   0  0  0  0  0  0  0  0  0  0  0  0
   13.2200   -2.6630   16.7660 C   0  0  0  0  0  0  0  0  0  0  0  0
   13.2060   -1.5560   15.9660 C   0  0  0  0  0  0  0  0  0  0  0  0
  4  5  2  0
  4  3  1  0
  5  6  1  0
  3  2  1  0
  2  6  2  0
  2  1  1  0
M  END
>  <id>  (122) 
122

>  <inchikey>  (122) 
JVVRJMXHNUAPHW-UHFFFAOYSA-N

>  <alias>  (122) 
7gq3-a

>  <smiles>  (122) 
Nc1ccn[nH]1

>  <path>  (122) 
/opt/xchem-fragalysis-2/maxwin/BulkDock/TARGETS/D68EV3C/aligned_files/7gq3-a/7gq3-a.pdb

>  <distance_score>  (122) 
None

>  <energy_score>  (122) 
None

>  <compound>  (122) 
JVVRJMXHNUAPHW-UHFFFAOYSA-N

>  <compound_id>  (122) 
100

>  <target>  (122) 
D68EV3C

>  <tags>  (122) 
['BAD count', '[Other] upload_1 2025-02-11', 'hits', 'MEDIOCRE count', 'Main status', 'GOOD count']

>  <inspirations>  (122) 
None

>  <subsites>  (122) 
None

>  <reference>  (122) 


>  <observation_longname>  (122) 
7gq3_B_201_v1

>  <ConformerSites alias>  (122) 
2a - 7gon/B/201

>  <CanonSites alias>  (122) 
2 - 7gon/B/201/1

>  <CrystalformSites alias>  (122) 
F2j - 7gqb/B/201/1

>  <Quatassemblies alias>  (122) 
A1 - monomer

>  <Crystalforms alias>  (122) 
F2 - EVD68_Reference_20230131

>  <ConformerSites upload name>  (122) 
2a - 7gon/B/201

>  <CanonSites upload name>  (122) 
2 - 7gon/B/201/1

>  <CrystalformSites upload name>  (122) 
F2j - 7gqb/B/201/1

>  <Quatassemblies upload name>  (122) 
A1 - monomer

>  <Crystalforms upload name>  (122) 
F2 - EVD68_Reference_20230131

>  <ConformerSites short tag>  (122) 
2a - 7gon/B/201

>  <CanonSites short tag>  (122) 
2 - 7gon/B/201/1

>  <CrystalformSites short tag>  (122) 
F2j - 7gqb/B/201/1

>  <Quatassemblies short tag>  (122) 
A1 - monomer

>  <Crystalforms short tag>  (122) 
F2 - EVD68_Reference_20230131

>  <Centroid res>  (122) 
7gon/B/47/B_v1

>  <Experiment code>  (122) 
7gq3

>  <Pose>  (122) 
7gq3-a

$$$$
7gpl-a
     RDKit          3D

 10 10  0  0  0  0  0  0  0  0999 V2000
  -11.6970  -24.5560   33.8650 N   0  0  0  0  0  0  0  0  0  0  0  0
  -10.7260  -25.0460   32.0270 C   0  0  0  0  0  0  0  0  0  0  0  0
  -12.3360  -23.8330   32.9420 C   0  0  0  0  0  0  0  0  0  0  0  0
  -10.7050  -25.3050   33.3300 N   0  0  0  0  0  0  0  0  0  0  0  0
  -11.3120  -24.8210   27.1190 C   0  0  0  0  0  0  0  0  0  0  0  0
  -11.4710  -24.1020   29.3930 O   0  0  0  0  0  0  0  0  0  0  0  0
  -12.0450  -23.9450   28.0570 C   0  0  0  0  0  0  0  0  0  0  0  0
  -12.1660  -23.5760   30.4140 C   0  0  0  0  0  0  0  0  0  0  0  0
  -11.7420  -24.1210   31.7200 C   0  0  0  0  0  0  0  0  0  0  0  0
  -13.0430  -22.7530   30.2820 O   0  0  0  0  0  0  0  0  0  0  0  0
  4  1  1  0
  4  2  2  0
  1  3  1  0
  2  9  1  0
  3  9  2  0
  9  8  1  0
  6  8  1  0
  6  7  1  0
  8 10  2  0
  7  5  1  0
M  END
>  <id>  (123) 
123

>  <inchikey>  (123) 
KACZQOKEFKFNDB-UHFFFAOYSA-N

>  <alias>  (123) 
7gpl-a

>  <smiles>  (123) 
CCOC(=O)c1cn[nH]c1

>  <path>  (123) 
/opt/xchem-fragalysis-2/maxwin/BulkDock/TARGETS/D68EV3C/aligned_files/7gpl-a/7gpl-a.pdb

>  <distance_score>  (123) 
None

>  <energy_score>  (123) 
None

>  <compound>  (123) 
KACZQOKEFKFNDB-UHFFFAOYSA-N

>  <compound_id>  (123) 
101

>  <target>  (123) 
D68EV3C

>  <tags>  (123) 
['BAD count', '[Other] upload_1 2025-02-11', 'hits', 'MEDIOCRE count', 'Main status', 'GOOD count']

>  <inspirations>  (123) 
None

>  <subsites>  (123) 
None

>  <reference>  (123) 


>  <observation_longname>  (123) 
7gpl_A_201_v1

>  <ConformerSites alias>  (123) 
5h - 7gpl/A/201

>  <CanonSites alias>  (123) 
5 - B1120/A/308/1

>  <CrystalformSites alias>  (123) 
F2r - 7goj/A/201/1

>  <Quatassemblies alias>  (123) 
A1 - monomer

>  <Crystalforms alias>  (123) 
F2 - EVD68_Reference_20230131

>  <ConformerSites upload name>  (123) 
5h - 7gpl/A/201

>  <CanonSites upload name>  (123) 
5 - D68EV3CPROB-x1120/A/308/1

>  <CrystalformSites upload name>  (123) 
F2r - 7goj/A/201/1

>  <Quatassemblies upload name>  (123) 
A1 - monomer

>  <Crystalforms upload name>  (123) 
F2 - EVD68_Reference_20230131

>  <ConformerSites short tag>  (123) 
5h - 7gpl/A/201

>  <CanonSites short tag>  (123) 
5 - B1120/A/308/1

>  <CrystalformSites short tag>  (123) 
F2r - 7goj/A/201/1

>  <Quatassemblies short tag>  (123) 
A1 - monomer

>  <Crystalforms short tag>  (123) 
F2 - EVD68_Reference_20230131

>  <Centroid res>  (123) 
D68EV3CPROB-x1120/B/115/A_v1

>  <Experiment code>  (123) 
7gpl

>  <Pose>  (123) 
7gpl-a

$$$$
7gpo-a
     RDKit          3D

 17 18  0  0  0  0  0  0  0  0999 V2000
   15.7500   -0.4900   17.3760 N   0  0  0  0  0  0  0  0  0  0  0  0
   13.6560   -2.1420   15.4600 C   0  0  0  0  0  0  0  0  0  0  0  0
   13.1910   -3.1410   16.3040 C   0  0  0  0  0  0  0  0  0  0  0  0
   11.9070   -3.6330   16.1730 C   0  0  0  0  0  0  0  0  0  0  0  0
   11.0600   -3.1050   15.2310 C   0  0  0  0  0  0  0  0  0  0  0  0
   11.4910   -2.0850   14.4220 C   0  0  0  0  0  0  0  0  0  0  0  0
   15.3330   -0.2860   15.9920 C   0  0  0  0  0  0  0  0  0  0  0  0
   16.4650   -1.7540   17.5610 C   0  0  0  0  0  0  0  0  0  0  0  0
   17.1950   -2.8970   14.3540 O   0  0  0  0  0  0  0  0  0  0  0  0
   17.1340   -3.2650   15.6020 C   0  0  0  0  0  0  0  0  0  0  0  0
   16.0160   -2.5980   16.3640 C   0  0  2  0  0  0  0  0  0  0  0  0
   15.1020   -1.7060   15.4800 C   0  0  1  0  0  0  0  0  0  0  0  0
   12.7820   -1.6080   14.5270 C   0  0  0  0  0  0  0  0  0  0  0  0
   15.4980    0.4130   18.3530 C   0  0  0  0  0  0  0  0  0  0  0  0
   15.6270    1.8690   18.0170 C   0  0  0  0  0  0  0  0  0  0  0  0
   15.1840    0.0480   19.4780 O   0  0  0  0  0  0  0  0  0  0  0  0
   17.8690   -4.0890   16.1040 O   0  0  0  0  0  0  0  0  0  0  0  0
  9 10  2  0
 15 14  1  0
  7 12  1  0
  7  1  1  0
 12 11  1  0
 12  2  1  1
 13  2  1  0
 13  6  2  0
  1 14  1  0
  1  8  1  0
 11 10  1  6
 10 17  1  0
 14 16  2  0
 11  8  1  0
  2  3  2  0
  6  5  1  0
  3  4  1  0
  5  4  2  0
M  END
>  <id>  (124) 
124

>  <inchikey>  (124) 
UJHLINFGICYWPQ-NEPJUHHUSA-N

>  <alias>  (124) 
7gpo-a

>  <smiles>  (124) 
CC(=O)N1C[C@H](C(=O)O)[C@@H](c2ccccc2)C1

>  <path>  (124) 
/opt/xchem-fragalysis-2/maxwin/BulkDock/TARGETS/D68EV3C/aligned_files/7gpo-a/7gpo-a.pdb

>  <distance_score>  (124) 
None

>  <energy_score>  (124) 
None

>  <compound>  (124) 
UJHLINFGICYWPQ-UHFFFAOYSA-N

>  <compound_id>  (124) 
102

>  <target>  (124) 
D68EV3C

>  <tags>  (124) 
['BAD count', '[Other] upload_1 2025-02-11', 'hits', 'MEDIOCRE count', 'Main status', 'GOOD count']

>  <inspirations>  (124) 
None

>  <subsites>  (124) 
None

>  <reference>  (124) 


>  <observation_longname>  (124) 
7gpo_B_201_v1

>  <ConformerSites alias>  (124) 
2a - 7gon/B/201

>  <CanonSites alias>  (124) 
2 - 7gon/B/201/1

>  <CrystalformSites alias>  (124) 
F2j - 7gqb/B/201/1

>  <Quatassemblies alias>  (124) 
A1 - monomer

>  <Crystalforms alias>  (124) 
F2 - EVD68_Reference_20230131

>  <ConformerSites upload name>  (124) 
2a - 7gon/B/201

>  <CanonSites upload name>  (124) 
2 - 7gon/B/201/1

>  <CrystalformSites upload name>  (124) 
F2j - 7gqb/B/201/1

>  <Quatassemblies upload name>  (124) 
A1 - monomer

>  <Crystalforms upload name>  (124) 
F2 - EVD68_Reference_20230131

>  <ConformerSites short tag>  (124) 
2a - 7gon/B/201

>  <CanonSites short tag>  (124) 
2 - 7gon/B/201/1

>  <CrystalformSites short tag>  (124) 
F2j - 7gqb/B/201/1

>  <Quatassemblies short tag>  (124) 
A1 - monomer

>  <Crystalforms short tag>  (124) 
F2 - EVD68_Reference_20230131

>  <Centroid res>  (124) 
7gon/B/47/B_v1

>  <Experiment code>  (124) 
7gpo

>  <Pose>  (124) 
7gpo-a

$$$$
7gpo-b
     RDKit          3D

 17 18  0  0  0  0  0  0  0  0999 V2000
  -23.5870  -17.7070   15.9310 N   0  0  0  0  0  0  0  0  0  0  0  0
  -24.2360  -14.4820   17.6010 C   0  0  0  0  0  0  0  0  0  0  0  0
  -24.6100  -14.8410   18.8920 C   0  0  0  0  0  0  0  0  0  0  0  0
  -25.2110  -13.9210   19.7390 C   0  0  0  0  0  0  0  0  0  0  0  0
  -25.4420  -12.6310   19.3100 C   0  0  0  0  0  0  0  0  0  0  0  0
  -25.0790  -12.2620   18.0330 C   0  0  0  0  0  0  0  0  0  0  0  0
  -23.5240  -16.9230   17.1620 C   0  0  0  0  0  0  0  0  0  0  0  0
  -24.3440  -17.0240   14.8870 C   0  0  0  0  0  0  0  0  0  0  0  0
  -23.7550  -13.7520   13.6990 O   0  0  0  0  0  0  0  0  0  0  0  0
  -23.3680  -14.7860   14.2020 C   0  0  0  0  0  0  0  0  0  0  0  0
  -24.1620  -15.5440   15.2380 C   0  0  2  0  0  0  0  0  0  0  0  0
  -23.5520  -15.4700   16.6690 C   0  0  1  0  0  0  0  0  0  0  0  0
  -24.4800  -13.1790   17.1840 C   0  0  0  0  0  0  0  0  0  0  0  0
  -23.0270  -18.9310   15.7770 C   0  0  0  0  0  0  0  0  0  0  0  0
  -23.2470  -19.9470   16.8570 C   0  0  0  0  0  0  0  0  0  0  0  0
  -22.3700  -19.1970   14.7840 O   0  0  0  0  0  0  0  0  0  0  0  0
  -22.2290  -15.3540   13.9140 O   0  0  0  0  0  0  0  0  0  0  0  0
  9 10  2  0
 15 14  1  0
  7 12  1  0
  7  1  1  0
 12 11  1  0
 12  2  1  1
 13  2  1  0
 13  6  2  0
  1 14  1  0
  1  8  1  0
 11 10  1  6
 10 17  1  0
 14 16  2  0
 11  8  1  0
  2  3  2  0
  6  5  1  0
  3  4  1  0
  5  4  2  0
M  END
>  <id>  (125) 
125

>  <inchikey>  (125) 
UJHLINFGICYWPQ-NEPJUHHUSA-N

>  <alias>  (125) 
7gpo-b

>  <smiles>  (125) 
CC(=O)N1C[C@H](C(=O)O)[C@@H](c2ccccc2)C1

>  <path>  (125) 
/opt/xchem-fragalysis-2/maxwin/BulkDock/TARGETS/D68EV3C/aligned_files/7gpo-b/7gpo-b.pdb

>  <distance_score>  (125) 
None

>  <energy_score>  (125) 
None

>  <compound>  (125) 
UJHLINFGICYWPQ-UHFFFAOYSA-N

>  <compound_id>  (125) 
102

>  <target>  (125) 
D68EV3C

>  <tags>  (125) 
['BAD count', '[Other] upload_1 2025-02-11', 'hits', 'MEDIOCRE count', 'Main status', 'GOOD count']

>  <inspirations>  (125) 
None

>  <subsites>  (125) 
None

>  <reference>  (125) 


>  <observation_longname>  (125) 
7gpo_B_202_v1

>  <ConformerSites alias>  (125) 
7a - B1081/A/308

>  <CanonSites alias>  (125) 
7 - B1081/A/308/1

>  <CrystalformSites alias>  (125) 
F2z - 7gpo/B/202/1

>  <Quatassemblies alias>  (125) 
A1 - monomer

>  <Crystalforms alias>  (125) 
F2 - EVD68_Reference_20230131

>  <ConformerSites upload name>  (125) 
7a - D68EV3CPROB-x1081/A/308

>  <CanonSites upload name>  (125) 
7 - D68EV3CPROB-x1081/A/308/1

>  <CrystalformSites upload name>  (125) 
F2z - 7gpo/B/202/1

>  <Quatassemblies upload name>  (125) 
A1 - monomer

>  <Crystalforms upload name>  (125) 
F2 - EVD68_Reference_20230131

>  <ConformerSites short tag>  (125) 
7a - B1081/A/308

>  <CanonSites short tag>  (125) 
7 - B1081/A/308/1

>  <CrystalformSites short tag>  (125) 
F2z - 7gpo/B/202/1

>  <Quatassemblies short tag>  (125) 
A1 - monomer

>  <Crystalforms short tag>  (125) 
F2 - EVD68_Reference_20230131

>  <Centroid res>  (125) 
D68EV3CPROB-x1081/B/91/A_v1

>  <Experiment code>  (125) 
7gpo

>  <Pose>  (125) 
7gpo-b

$$$$
7gq6-a
     RDKit          3D

 16 17  0  0  0  0  0  0  0  0999 V2000
  -10.1090    2.1460    7.5640 N   0  0  0  0  0  0  0  0  0  0  0  0
  -12.0860    1.1490   11.1070 C   0  0  0  0  0  0  0  0  0  0  0  0
  -12.0720    1.8870   12.2890 C   0  0  0  0  0  0  0  0  0  0  0  0
  -13.1470    1.8630   13.1560 C   0  0  0  0  0  0  0  0  0  0  0  0
  -10.4870    2.5970    9.9710 C   0  0  0  0  0  0  0  0  0  0  0  0
   -9.5300    2.6890    8.8040 C   0  0  0  0  0  0  0  0  0  0  0  0
  -10.9670    0.3850    9.0090 C   0  0  0  0  0  0  0  0  0  0  0  0
  -15.2400    1.5430   15.2130 O   0  0  0  0  0  0  0  0  0  0  0  0
  -15.6730    1.1660   13.8990 S   0  0  0  0  0  0  0  0  0  0  0  0
  -16.4000   -0.0610   13.7550 O   0  0  0  0  0  0  0  0  0  0  0  0
  -16.6370    2.4700   13.2310 C   0  0  0  0  0  0  0  0  0  0  0  0
  -14.2550    1.0990   12.8470 C   0  0  0  0  0  0  0  0  0  0  0  0
  -13.2080    0.3600   10.8270 C   0  0  0  0  0  0  0  0  0  0  0  0
  -14.2880    0.3330   11.6920 C   0  0  0  0  0  0  0  0  0  0  0  0
  -11.0090    1.2410   10.2000 N   0  0  0  0  0  0  0  0  0  0  0  0
  -11.2160    1.2160    7.7760 C   0  0  0  0  0  0  0  0  0  0  0  0
 10  9  2  0
 14 13  2  0
 14 12  1  0
  9  8  2  0
  9 12  1  0
  9 11  1  0
 13  2  1  0
 12  4  2  0
  5  6  1  0
  5 15  1  0
  2 15  1  0
  2  3  2  0
  6  1  1  0
  4  3  1  0
 15  7  1  0
  1 16  1  0
  7 16  1  0
M  END
>  <id>  (126) 
126

>  <inchikey>  (126) 
KNQFDOLIXOOIGX-UHFFFAOYSA-N

>  <alias>  (126) 
7gq6-a

>  <smiles>  (126) 
CS(=O)(=O)c1ccc(N2CCNCC2)cc1

>  <path>  (126) 
/opt/xchem-fragalysis-2/maxwin/BulkDock/TARGETS/D68EV3C/aligned_files/7gq6-a/7gq6-a.pdb

>  <distance_score>  (126) 
None

>  <energy_score>  (126) 
None

>  <compound>  (126) 
KNQFDOLIXOOIGX-UHFFFAOYSA-N

>  <compound_id>  (126) 
103

>  <target>  (126) 
D68EV3C

>  <tags>  (126) 
['BAD count', '[Other] upload_1 2025-02-11', 'hits', 'MEDIOCRE count', 'Main status', 'GOOD count']

>  <inspirations>  (126) 
None

>  <subsites>  (126) 
None

>  <reference>  (126) 


>  <observation_longname>  (126) 
7gq6_B_201_v1

>  <ConformerSites alias>  (126) 
3a - 7gpw/B/202

>  <CanonSites alias>  (126) 
3 - 7gpw/B/202/1

>  <CrystalformSites alias>  (126) 
F2n - 7gou/B/202/1

>  <Quatassemblies alias>  (126) 
A1 - monomer

>  <Crystalforms alias>  (126) 
F2 - EVD68_Reference_20230131

>  <ConformerSites upload name>  (126) 
3a - 7gpw/B/202

>  <CanonSites upload name>  (126) 
3 - 7gpw/B/202/1

>  <CrystalformSites upload name>  (126) 
F2n - 7gou/B/202/1

>  <Quatassemblies upload name>  (126) 
A1 - monomer

>  <Crystalforms upload name>  (126) 
F2 - EVD68_Reference_20230131

>  <ConformerSites short tag>  (126) 
3a - 7gpw/B/202

>  <CanonSites short tag>  (126) 
3 - 7gpw/B/202/1

>  <CrystalformSites short tag>  (126) 
F2n - 7gou/B/202/1

>  <Quatassemblies short tag>  (126) 
A1 - monomer

>  <Crystalforms short tag>  (126) 
F2 - EVD68_Reference_20230131

>  <Centroid res>  (126) 
7gpw/B/74/B_v1

>  <Experiment code>  (126) 
7gq6

>  <Pose>  (126) 
7gq6-a

$$$$
B0426a
     RDKit          3D

 22 24  0  0  0  0  0  0  0  0999 V2000
   -3.2830   -1.2090    8.0320 F   0  0  0  0  0  0  0  0  0  0  0  0
   -4.0190   -0.6470    7.0840 C   0  0  0  0  0  0  0  0  0  0  0  0
   -3.3700   -0.8240    5.9300 F   0  0  0  0  0  0  0  0  0  0  0  0
   -3.9660    0.6620    7.3430 F   0  0  0  0  0  0  0  0  0  0  0  0
   -5.4020   -1.2160    7.0220 C   0  0  0  0  0  0  0  0  0  0  0  0
   -6.4760   -0.5460    7.6020 C   0  0  0  0  0  0  0  0  0  0  0  0
   -7.7760   -1.0710    7.5120 C   0  0  0  0  0  0  0  0  0  0  0  0
   -7.9630   -2.2930    6.8480 C   0  0  0  0  0  0  0  0  0  0  0  0
   -6.8870   -2.9520    6.2810 C   0  0  0  0  0  0  0  0  0  0  0  0
   -5.6180   -2.4170    6.3640 C   0  0  0  0  0  0  0  0  0  0  0  0
   -8.8860   -0.3760    8.0520 N   0  0  0  0  0  0  0  0  0  0  0  0
  -10.1870   -0.7780    7.4990 C   0  0  0  0  0  0  0  0  0  0  0  0
  -11.3300   -0.2080    8.3020 C   0  0  0  0  0  0  0  0  0  0  0  0
  -11.2390    1.2460    8.3320 N   0  0  0  0  0  0  0  0  0  0  0  0
   -9.9970    1.6170    9.0120 C   0  0  0  0  0  0  0  0  0  0  0  0
   -8.7910    1.0770    8.2530 C   0  0  0  0  0  0  0  0  0  0  0  0
  -12.4090    1.8630    8.9640 C   0  0  0  0  0  0  0  0  0  0  0  0
  -13.4730    0.9260    9.4760 C   0  0  0  0  0  0  0  0  0  0  0  0
  -14.5590    0.4130    8.7640 C   0  0  0  0  0  0  0  0  0  0  0  0
  -15.3000   -0.2940    9.6220 N   0  0  0  0  0  0  0  0  0  0  0  0
  -14.7670   -0.2920   10.8630 N   0  0  0  0  0  0  0  0  0  0  0  0
  -13.6590    0.4370   10.7740 C   0  0  0  0  0  0  0  0  0  0  0  0
  3  2  1  0
  4  2  1  0
  2  1  1  0
  5  2  1  0
  5 10  2  0
 10  9  1  0
  9  8  2  0
  8  7  1  0
 11  7  1  0
 11 16  1  0
 16 15  1  0
 15 14  1  0
 17 14  1  0
 18 17  1  0
 18 22  1  0
 22 21  2  0
 21 20  1  0
 20 19  1  0
 19 18  2  0
 14 13  1  0
 13 12  1  0
 12 11  1  0
  7  6  2  0
  6  5  1  0
M  END
>  <id>  (127) 
127

>  <inchikey>  (127) 
DJYGXLQCAWWWIH-UHFFFAOYSA-N

>  <alias>  (127) 
B0426a

>  <smiles>  (127) 
FC(F)(F)c1cccc(N2CCN(Cc3cn[nH]c3)CC2)c1

>  <path>  (127) 
/opt/xchem-fragalysis-2/maxwin/BulkDock/TARGETS/D68EV3C/aligned_files/B0426a/B0426a.pdb

>  <distance_score>  (127) 
None

>  <energy_score>  (127) 
None

>  <compound>  (127) 
DJYGXLQCAWWWIH-UHFFFAOYSA-N

>  <compound_id>  (127) 
104

>  <target>  (127) 
D68EV3C

>  <tags>  (127) 
['BAD count', '[Other] upload_1 2025-02-11', 'hits', 'MEDIOCRE count', 'Main status', 'GOOD count']

>  <inspirations>  (127) 
None

>  <subsites>  (127) 
None

>  <reference>  (127) 


>  <observation_longname>  (127) 
D68EV3CPROB-x0426_A_209_v1

>  <ConformerSites alias>  (127) 
3a - 7gpw/B/202

>  <CanonSites alias>  (127) 
3 - 7gpw/B/202/1

>  <CrystalformSites alias>  (127) 
F1o - 0426/A/209

>  <Quatassemblies alias>  (127) 
A1 - monomer

>  <Crystalforms alias>  (127) 
F1 - D68_3C_PROB

>  <ConformerSites upload name>  (127) 
3a - 7gpw/B/202

>  <CanonSites upload name>  (127) 
3 - 7gpw/B/202/1

>  <CrystalformSites upload name>  (127) 
F1o - D68EV3CPROB-x0426/A/209/1

>  <Quatassemblies upload name>  (127) 
A1 - monomer

>  <Crystalforms upload name>  (127) 
F1 - D68_3C_PROB

>  <ConformerSites short tag>  (127) 
3a - 7gpw/B/202

>  <CanonSites short tag>  (127) 
3 - 7gpw/B/202/1

>  <CrystalformSites short tag>  (127) 
F1o - 0426/A/209

>  <Quatassemblies short tag>  (127) 
A1 - monomer

>  <Crystalforms short tag>  (127) 
F1 - D68_3C_PROB

>  <Centroid res>  (127) 
7gpw/B/74/B_v1

>  <Experiment code>  (127) 
D68EV3CPROB-x0426

>  <Pose>  (127) 
B0426a

$$$$
B0436a
     RDKit          3D

 21 23  0  0  0  0  0  0  0  0999 V2000
    3.8150    1.7910   33.3850 O   0  0  0  0  0  0  0  0  0  0  0  0
    3.5000    0.9670   34.2420 C   0  0  0  0  0  0  0  0  0  0  0  0
    2.5550    1.2040   35.1450 N   0  0  0  0  0  0  0  0  0  0  0  0
    2.4470    2.4700   35.8470 C   0  0  0  0  0  0  0  0  0  0  0  0
    4.1830   -0.3840   34.3360 C   0  0  0  0  0  0  0  0  0  0  0  0
    3.3490   -1.5330   33.8130 C   0  0  0  0  0  0  0  0  0  0  0  0
    2.5820   -1.4000   32.6640 C   0  0  0  0  0  0  0  0  0  0  0  0
    1.8340   -2.4560   32.1770 C   0  0  0  0  0  0  0  0  0  0  0  0
    1.8270   -3.6850   32.8320 C   0  0  0  0  0  0  0  0  0  0  0  0
    2.6010   -3.8220   33.9820 C   0  0  0  0  0  0  0  0  0  0  0  0
    3.3510   -2.7600   34.4600 C   0  0  0  0  0  0  0  0  0  0  0  0
    1.0010   -4.8110   32.3340 C   0  0  0  0  0  0  0  0  0  0  0  0
    0.2450   -5.5590   33.1780 C   0  0  0  0  0  0  0  0  0  0  0  0
   -0.5130   -6.6100   32.6980 N   0  0  0  0  0  0  0  0  0  0  0  0
   -1.3610   -7.5380   33.2920 C   0  0  0  0  0  0  0  0  0  0  0  0
   -1.5820   -7.5670   34.6120 N   0  0  0  0  0  0  0  0  0  0  0  0
   -1.8720   -8.3530   32.3780 N   0  0  0  0  0  0  0  0  0  0  0  0
   -1.3510   -7.9780   31.1400 N   0  0  0  0  0  0  0  0  0  0  0  0
   -0.5440   -6.9450   31.3470 C   0  0  0  0  0  0  0  0  0  0  0  0
    0.2460   -6.1770   30.4510 C   0  0  0  0  0  0  0  0  0  0  0  0
    0.9850   -5.1510   30.9370 C   0  0  0  0  0  0  0  0  0  0  0  0
  4  3  1  0
  3  2  1  0
  2  1  2  0
  5  2  1  0
  6  5  1  0
  6 11  2  0
 11 10  1  0
 10  9  2  0
 12  9  1  0
 12 21  1  0
 21 20  2  0
 20 19  1  0
 19 18  2  0
 18 17  1  0
 17 15  2  0
 16 15  1  0
 15 14  1  0
 19 14  1  0
 14 13  1  0
 13 12  2  0
  9  8  1  0
  8  7  2  0
  7  6  1  0
M  END
>  <id>  (128) 
128

>  <inchikey>  (128) 
RWCBDYVITSXUHF-UHFFFAOYSA-N

>  <alias>  (128) 
B0436a

>  <smiles>  (128) 
CNC(=O)Cc1ccc(-c2ccc3nnc(N)n3c2)cc1

>  <path>  (128) 
/opt/xchem-fragalysis-2/maxwin/BulkDock/TARGETS/D68EV3C/aligned_files/B0436a/B0436a.pdb

>  <distance_score>  (128) 
None

>  <energy_score>  (128) 
None

>  <compound>  (128) 
RWCBDYVITSXUHF-UHFFFAOYSA-N

>  <compound_id>  (128) 
105

>  <target>  (128) 
D68EV3C

>  <tags>  (128) 
['BAD count', '[Other] upload_1 2025-02-11', '[Other] iter1_frags', 'hits', 'MEDIOCRE count', 'Main status', 'GOOD count']

>  <inspirations>  (128) 
None

>  <subsites>  (128) 
None

>  <reference>  (128) 


>  <observation_longname>  (128) 
D68EV3CPROB-x0436_B_301_v1

>  <ConformerSites alias>  (128) 
1a - 7gp9/A/201

>  <CanonSites alias>  (128) 
1 - 7gp9/A/201/1

>  <CrystalformSites alias>  (128) 
F1e - 0436/B/301

>  <Quatassemblies alias>  (128) 
A1 - monomer

>  <Crystalforms alias>  (128) 
F1 - D68_3C_PROB

>  <ConformerSites upload name>  (128) 
1a - 7gp9/A/201

>  <CanonSites upload name>  (128) 
1 - 7gp9/A/201/1

>  <CrystalformSites upload name>  (128) 
F1e - D68EV3CPROB-x0436/B/301/1

>  <Quatassemblies upload name>  (128) 
A1 - monomer

>  <Crystalforms upload name>  (128) 
F1 - D68_3C_PROB

>  <ConformerSites short tag>  (128) 
1a - 7gp9/A/201

>  <CanonSites short tag>  (128) 
1 - 7gp9/A/201/1

>  <CrystalformSites short tag>  (128) 
F1e - 0436/B/301

>  <Quatassemblies short tag>  (128) 
A1 - monomer

>  <Crystalforms short tag>  (128) 
F1 - D68_3C_PROB

>  <Centroid res>  (128) 
7gp9/A/163/A_v1

>  <Experiment code>  (128) 
D68EV3CPROB-x0436

>  <Pose>  (128) 
B0436a

$$$$
B0439a
     RDKit          3D

 21 23  0  0  0  0  0  0  0  0999 V2000
    4.5690   -4.9910   35.5690 O   0  0  0  0  0  0  0  0  0  0  0  0
    4.1790   -3.7510   36.1660 S   0  0  0  0  0  0  0  0  0  0  0  0
    4.9430   -3.2400   37.2620 O   0  0  0  0  0  0  0  0  0  0  0  0
    2.5070   -3.8810   36.6750 C   0  0  0  0  0  0  0  0  0  0  0  0
    4.2060   -2.6230   34.9930 N   0  0  0  0  0  0  0  0  0  0  0  0
    3.4540   -2.6970   33.7790 C   0  0  0  0  0  0  0  0  0  0  0  0
    2.6610   -3.8030   33.4690 C   0  0  0  0  0  0  0  0  0  0  0  0
    1.8970   -3.8200   32.3030 C   0  0  0  0  0  0  0  0  0  0  0  0
    1.9440   -2.7200   31.4490 C   0  0  0  0  0  0  0  0  0  0  0  0
    2.7320   -1.6240   31.7550 C   0  0  0  0  0  0  0  0  0  0  0  0
    3.4860   -1.6070   32.9150 C   0  0  0  0  0  0  0  0  0  0  0  0
    1.0430   -4.9930   31.9870 C   0  0  0  0  0  0  0  0  0  0  0  0
    0.3150   -5.6340   32.9380 C   0  0  0  0  0  0  0  0  0  0  0  0
   -0.5180   -6.6870   32.5940 N   0  0  0  0  0  0  0  0  0  0  0  0
   -1.3780   -7.5220   33.2990 C   0  0  0  0  0  0  0  0  0  0  0  0
   -1.5500   -7.4230   34.6210 N   0  0  0  0  0  0  0  0  0  0  0  0
   -1.9740   -8.3820   32.4820 N   0  0  0  0  0  0  0  0  0  0  0  0
   -1.5070   -8.1330   31.1960 N   0  0  0  0  0  0  0  0  0  0  0  0
   -0.6450   -7.1310   31.2770 C   0  0  0  0  0  0  0  0  0  0  0  0
    0.1240   -6.4850   30.2790 C   0  0  0  0  0  0  0  0  0  0  0  0
    0.9320   -5.4580   30.6280 C   0  0  0  0  0  0  0  0  0  0  0  0
  4  2  1  0
  3  2  2  0
  2  1  2  0
  5  2  1  0
  6  5  1  0
  6 11  2  0
 11 10  1  0
 10  9  2  0
  9  8  1  0
 12  8  1  0
 12 21  1  0
 21 20  2  0
 20 19  1  0
 19 18  2  0
 18 17  1  0
 17 15  2  0
 16 15  1  0
 15 14  1  0
 19 14  1  0
 14 13  1  0
 13 12  2  0
  8  7  2  0
  7  6  1  0
M  END
>  <id>  (129) 
129

>  <inchikey>  (129) 
POMKRPOCZAWFPL-UHFFFAOYSA-N

>  <alias>  (129) 
B0439a

>  <smiles>  (129) 
CS(=O)(=O)Nc1cccc(-c2ccc3nnc(N)n3c2)c1

>  <path>  (129) 
/opt/xchem-fragalysis-2/maxwin/BulkDock/TARGETS/D68EV3C/aligned_files/B0439a/B0439a.pdb

>  <distance_score>  (129) 
None

>  <energy_score>  (129) 
None

>  <compound>  (129) 
POMKRPOCZAWFPL-UHFFFAOYSA-N

>  <compound_id>  (129) 
106

>  <target>  (129) 
D68EV3C

>  <tags>  (129) 
['BAD count', '[Other] upload_1 2025-02-11', '[Other] iter1_frags', 'hits', 'MEDIOCRE count', 'Main status', 'GOOD count']

>  <inspirations>  (129) 
None

>  <subsites>  (129) 
None

>  <reference>  (129) 


>  <observation_longname>  (129) 
D68EV3CPROB-x0439_B_301_v1

>  <ConformerSites alias>  (129) 
1a - 7gp9/A/201

>  <CanonSites alias>  (129) 
1 - 7gp9/A/201/1

>  <CrystalformSites alias>  (129) 
F1e - 0436/B/301

>  <Quatassemblies alias>  (129) 
A1 - monomer

>  <Crystalforms alias>  (129) 
F1 - D68_3C_PROB

>  <ConformerSites upload name>  (129) 
1a - 7gp9/A/201

>  <CanonSites upload name>  (129) 
1 - 7gp9/A/201/1

>  <CrystalformSites upload name>  (129) 
F1e - D68EV3CPROB-x0436/B/301/1

>  <Quatassemblies upload name>  (129) 
A1 - monomer

>  <Crystalforms upload name>  (129) 
F1 - D68_3C_PROB

>  <ConformerSites short tag>  (129) 
1a - 7gp9/A/201

>  <CanonSites short tag>  (129) 
1 - 7gp9/A/201/1

>  <CrystalformSites short tag>  (129) 
F1e - 0436/B/301

>  <Quatassemblies short tag>  (129) 
A1 - monomer

>  <Crystalforms short tag>  (129) 
F1 - D68_3C_PROB

>  <Centroid res>  (129) 
7gp9/A/163/A_v1

>  <Experiment code>  (129) 
D68EV3CPROB-x0439

>  <Pose>  (129) 
B0439a

$$$$
B0446a
     RDKit          3D

 19 20  0  0  0  0  0  0  0  0999 V2000
   -1.9890   -3.5900   31.6130 O   0  0  0  0  0  0  0  0  0  0  0  0
   -0.9560   -3.5150   30.9650 C   0  0  0  0  0  0  0  0  0  0  0  0
    0.1430   -4.2040   31.3370 N   0  0  0  0  0  0  0  0  0  0  0  0
    0.3590   -4.5740   32.7270 C   0  0  0  0  0  0  0  0  0  0  0  0
    0.7730   -6.0330   32.8410 C   0  0  0  0  0  0  0  0  0  0  0  0
   -0.2440   -6.9810   32.3150 N   0  0  0  0  0  0  0  0  0  0  0  0
   -0.4260   -7.3720   31.0330 C   0  0  0  0  0  0  0  0  0  0  0  0
   -1.3950   -8.2460   30.9470 N   0  0  0  0  0  0  0  0  0  0  0  0
   -1.8720   -8.4410   32.2370 N   0  0  0  0  0  0  0  0  0  0  0  0
   -1.1600   -7.6770   33.0230 C   0  0  0  0  0  0  0  0  0  0  0  0
   -0.8660   -2.7480   29.8220 N   0  0  0  0  0  0  0  0  0  0  0  0
    0.3320   -2.6860   28.9900 C   0  0  0  0  0  0  0  0  0  0  0  0
   -1.9740   -1.8900   29.3800 C   0  0  0  0  0  0  0  0  0  0  0  0
   -1.5580   -0.4710   29.0590 C   0  0  0  0  0  0  0  0  0  0  0  0
   -1.8910    0.1080   27.8400 C   0  0  0  0  0  0  0  0  0  0  0  0
   -1.5610    1.4280   27.5630 C   0  0  0  0  0  0  0  0  0  0  0  0
   -0.8700    2.1760   28.4900 C   0  0  0  0  0  0  0  0  0  0  0  0
   -0.5200    1.6110   29.7010 C   0  0  0  0  0  0  0  0  0  0  0  0
   -0.8690    0.2980   29.9880 C   0  0  0  0  0  0  0  0  0  0  0  0
 12 11  1  0
 13 11  1  0
 14 13  1  0
 14 19  2  0
 19 18  1  0
 18 17  2  0
 17 16  1  0
 16 15  2  0
 15 14  1  0
 11  2  1  0
  2  1  2  0
  3  2  1  0
  4  3  1  0
  5  4  1  0
  6  5  1  0
  6 10  1  0
 10  9  2  0
  9  8  1  0
  8  7  2  0
  7  6  1  0
M  END
>  <id>  (130) 
130

>  <inchikey>  (130) 
DGXVCUCSXWHVSR-UHFFFAOYSA-N

>  <alias>  (130) 
B0446a

>  <smiles>  (130) 
CN(Cc1ccccc1)C(=O)NCCn1cnnc1

>  <path>  (130) 
/opt/xchem-fragalysis-2/maxwin/BulkDock/TARGETS/D68EV3C/aligned_files/B0446a/B0446a_hippo.pdb

>  <distance_score>  (130) 
None

>  <energy_score>  (130) 
None

>  <compound>  (130) 
DGXVCUCSXWHVSR-UHFFFAOYSA-N

>  <compound_id>  (130) 
107

>  <target>  (130) 
D68EV3C

>  <tags>  (130) 
['BAD count', '[Other] upload_1 2025-02-11', '[Other] iter1_frags', 'hits', 'MEDIOCRE count', 'Main status', 'GOOD count']

>  <inspirations>  (130) 
None

>  <subsites>  (130) 
None

>  <reference>  (130) 


>  <observation_longname>  (130) 
D68EV3CPROB-x0446_A_209_v1

>  <ConformerSites alias>  (130) 
1a - 7gp9/A/201

>  <CanonSites alias>  (130) 
1 - 7gp9/A/201/1

>  <CrystalformSites alias>  (130) 
F1f - 0446/A/209

>  <Quatassemblies alias>  (130) 
A1 - monomer

>  <Crystalforms alias>  (130) 
F1 - D68_3C_PROB

>  <ConformerSites upload name>  (130) 
1a - 7gp9/A/201

>  <CanonSites upload name>  (130) 
1 - 7gp9/A/201/1

>  <CrystalformSites upload name>  (130) 
F1f - D68EV3CPROB-x0446/A/209/1

>  <Quatassemblies upload name>  (130) 
A1 - monomer

>  <Crystalforms upload name>  (130) 
F1 - D68_3C_PROB

>  <ConformerSites short tag>  (130) 
1a - 7gp9/A/201

>  <CanonSites short tag>  (130) 
1 - 7gp9/A/201/1

>  <CrystalformSites short tag>  (130) 
F1f - 0446/A/209

>  <Quatassemblies short tag>  (130) 
A1 - monomer

>  <Crystalforms short tag>  (130) 
F1 - D68_3C_PROB

>  <Centroid res>  (130) 
7gp9/A/163/A_v1

>  <Experiment code>  (130) 
D68EV3CPROB-x0446

>  <Pose>  (130) 
B0446a

$$$$
B0446b
     RDKit          3D

 19 20  0  0  0  0  0  0  0  0999 V2000
   -2.2770   -3.2460   31.6790 O   0  0  0  0  0  0  0  0  0  0  0  0
   -1.2590   -3.3680   31.0110 C   0  0  0  0  0  0  0  0  0  0  0  0
   -0.2540   -4.1910   31.3790 N   0  0  0  0  0  0  0  0  0  0  0  0
   -0.0440   -4.5720   32.7690 C   0  0  0  0  0  0  0  0  0  0  0  0
    0.6250   -5.9230   32.8230 C   0  0  0  0  0  0  0  0  0  0  0  0
   -0.3030   -6.9360   32.3260 N   0  0  0  0  0  0  0  0  0  0  0  0
   -0.5020   -7.3080   31.0460 C   0  0  0  0  0  0  0  0  0  0  0  0
   -1.4510   -8.1990   30.9670 N   0  0  0  0  0  0  0  0  0  0  0  0
   -1.8970   -8.4280   32.2590 N   0  0  0  0  0  0  0  0  0  0  0  0
   -1.1880   -7.6620   33.0430 C   0  0  0  0  0  0  0  0  0  0  0  0
   -1.1310   -2.7430   29.7990 N   0  0  0  0  0  0  0  0  0  0  0  0
   -0.0070   -2.9530   28.8940 C   0  0  0  0  0  0  0  0  0  0  0  0
   -2.1670   -1.8240   29.3330 C   0  0  0  0  0  0  0  0  0  0  0  0
   -1.6560   -0.4220   29.1010 C   0  0  0  0  0  0  0  0  0  0  0  0
   -1.9640    0.2620   27.9340 C   0  0  0  0  0  0  0  0  0  0  0  0
   -1.4450    1.5230   27.6930 C   0  0  0  0  0  0  0  0  0  0  0  0
   -0.5970    2.1070   28.6040 C   0  0  0  0  0  0  0  0  0  0  0  0
   -0.2840    1.4400   29.7700 C   0  0  0  0  0  0  0  0  0  0  0  0
   -0.8240    0.1900   30.0250 C   0  0  0  0  0  0  0  0  0  0  0  0
 12 11  1  0
 13 11  1  0
 14 13  1  0
 14 19  2  0
 19 18  1  0
 18 17  2  0
 17 16  1  0
 16 15  2  0
 15 14  1  0
 11  2  1  0
  2  1  2  0
  3  2  1  0
  4  3  1  0
  5  4  1  0
  6  5  1  0
  6 10  1  0
 10  9  2  0
  9  8  1  0
  8  7  2  0
  7  6  1  0
M  END
>  <id>  (131) 
131

>  <inchikey>  (131) 
DGXVCUCSXWHVSR-UHFFFAOYSA-N

>  <alias>  (131) 
B0446b

>  <smiles>  (131) 
CN(Cc1ccccc1)C(=O)NCCn1cnnc1

>  <path>  (131) 
/opt/xchem-fragalysis-2/maxwin/BulkDock/TARGETS/D68EV3C/aligned_files/B0446b/B0446b_hippo.pdb

>  <distance_score>  (131) 
None

>  <energy_score>  (131) 
None

>  <compound>  (131) 
DGXVCUCSXWHVSR-UHFFFAOYSA-N

>  <compound_id>  (131) 
107

>  <target>  (131) 
D68EV3C

>  <tags>  (131) 
['BAD count', '[Other] upload_1 2025-02-11', 'hits', 'MEDIOCRE count', 'Main status', 'GOOD count']

>  <inspirations>  (131) 
None

>  <subsites>  (131) 
None

>  <reference>  (131) 


>  <observation_longname>  (131) 
D68EV3CPROB-x0446_B_207_v1

>  <ConformerSites alias>  (131) 
1a - 7gp9/A/201

>  <CanonSites alias>  (131) 
1 - 7gp9/A/201/1

>  <CrystalformSites alias>  (131) 
F1e - 0436/B/301

>  <Quatassemblies alias>  (131) 
A1 - monomer

>  <Crystalforms alias>  (131) 
F1 - D68_3C_PROB

>  <ConformerSites upload name>  (131) 
1a - 7gp9/A/201

>  <CanonSites upload name>  (131) 
1 - 7gp9/A/201/1

>  <CrystalformSites upload name>  (131) 
F1e - D68EV3CPROB-x0436/B/301/1

>  <Quatassemblies upload name>  (131) 
A1 - monomer

>  <Crystalforms upload name>  (131) 
F1 - D68_3C_PROB

>  <ConformerSites short tag>  (131) 
1a - 7gp9/A/201

>  <CanonSites short tag>  (131) 
1 - 7gp9/A/201/1

>  <CrystalformSites short tag>  (131) 
F1e - 0436/B/301

>  <Quatassemblies short tag>  (131) 
A1 - monomer

>  <Crystalforms short tag>  (131) 
F1 - D68_3C_PROB

>  <Centroid res>  (131) 
7gp9/A/163/A_v1

>  <Experiment code>  (131) 
D68EV3CPROB-x0446

>  <Pose>  (131) 
B0446a

$$$$
B0450a
     RDKit          3D

 20 22  0  0  0  0  0  0  0  0999 V2000
   -1.5260   -7.6400   34.5750 N   0  0  0  0  0  0  0  0  0  0  0  0
   -1.3210   -7.6120   33.2510 C   0  0  0  0  0  0  0  0  0  0  0  0
   -1.9160   -8.3590   32.3280 N   0  0  0  0  0  0  0  0  0  0  0  0
   -1.4050   -7.9820   31.0890 N   0  0  0  0  0  0  0  0  0  0  0  0
   -0.4230   -6.7430   32.6670 N   0  0  0  0  0  0  0  0  0  0  0  0
   -0.5130   -7.0170   31.3060 C   0  0  0  0  0  0  0  0  0  0  0  0
    0.3190   -6.2830   30.4240 C   0  0  0  0  0  0  0  0  0  0  0  0
    1.1710   -5.3550   30.9310 C   0  0  0  0  0  0  0  0  0  0  0  0
    0.4450   -5.7930   33.1700 C   0  0  0  0  0  0  0  0  0  0  0  0
    1.2600   -5.0860   32.3450 C   0  0  0  0  0  0  0  0  0  0  0  0
    2.2490   -4.1200   32.8820 C   0  0  0  0  0  0  0  0  0  0  0  0
    2.4530   -2.8860   32.2660 C   0  0  0  0  0  0  0  0  0  0  0  0
    3.3870   -1.9910   32.7590 C   0  0  0  0  0  0  0  0  0  0  0  0
    2.9970   -4.4510   34.0090 C   0  0  0  0  0  0  0  0  0  0  0  0
    3.9380   -3.5690   34.5080 C   0  0  0  0  0  0  0  0  0  0  0  0
    4.7330   -3.8180   35.5930 O   0  0  0  0  0  0  0  0  0  0  0  0
    5.4020   -5.0790   35.6500 C   0  0  0  0  0  0  0  0  0  0  0  0
    4.1330   -2.3230   33.8800 C   0  0  0  0  0  0  0  0  0  0  0  0
    5.0690   -1.5100   34.4600 O   0  0  0  0  0  0  0  0  0  0  0  0
    6.2170   -1.1670   33.6830 C   0  0  0  0  0  0  0  0  0  0  0  0
 20 19  1  0
 19 18  1  0
 18 13  1  0
 13 12  2  0
 12 11  1  0
 11 10  1  0
 10  8  1  0
  8  7  2  0
  7  6  1  0
  6  4  2  0
  4  3  1  0
  3  2  2  0
  2  1  1  0
  5  2  1  0
  6  5  1  0
  9  5  1  0
 10  9  2  0
 14 11  2  0
 15 14  1  0
 18 15  2  0
 16 15  1  0
 17 16  1  0
M  END
>  <id>  (132) 
132

>  <inchikey>  (132) 
WPZDOUWFJLYHBJ-UHFFFAOYSA-N

>  <alias>  (132) 
B0450a

>  <smiles>  (132) 
COc1ccc(-c2ccc3nnc(N)n3c2)cc1OC

>  <path>  (132) 
/opt/xchem-fragalysis-2/maxwin/BulkDock/TARGETS/D68EV3C/aligned_files/B0450a/B0450a.pdb

>  <distance_score>  (132) 
None

>  <energy_score>  (132) 
None

>  <compound>  (132) 
WPZDOUWFJLYHBJ-UHFFFAOYSA-N

>  <compound_id>  (132) 
108

>  <target>  (132) 
D68EV3C

>  <tags>  (132) 
['BAD count', '[Other] upload_1 2025-02-11', '[Other] iter1_frags', 'hits', 'MEDIOCRE count', 'Main status', 'GOOD count']

>  <inspirations>  (132) 
None

>  <subsites>  (132) 
None

>  <reference>  (132) 


>  <observation_longname>  (132) 
D68EV3CPROB-x0450_A_209_v1

>  <ConformerSites alias>  (132) 
1a - 7gp9/A/201

>  <CanonSites alias>  (132) 
1 - 7gp9/A/201/1

>  <CrystalformSites alias>  (132) 
F1f - 0446/A/209

>  <Quatassemblies alias>  (132) 
A1 - monomer

>  <Crystalforms alias>  (132) 
F1 - D68_3C_PROB

>  <ConformerSites upload name>  (132) 
1a - 7gp9/A/201

>  <CanonSites upload name>  (132) 
1 - 7gp9/A/201/1

>  <CrystalformSites upload name>  (132) 
F1f - D68EV3CPROB-x0446/A/209/1

>  <Quatassemblies upload name>  (132) 
A1 - monomer

>  <Crystalforms upload name>  (132) 
F1 - D68_3C_PROB

>  <ConformerSites short tag>  (132) 
1a - 7gp9/A/201

>  <CanonSites short tag>  (132) 
1 - 7gp9/A/201/1

>  <CrystalformSites short tag>  (132) 
F1f - 0446/A/209

>  <Quatassemblies short tag>  (132) 
A1 - monomer

>  <Crystalforms short tag>  (132) 
F1 - D68_3C_PROB

>  <Centroid res>  (132) 
7gp9/A/163/A_v1

>  <Experiment code>  (132) 
D68EV3CPROB-x0450

>  <Pose>  (132) 
B0450a

$$$$
B0450b
     RDKit          3D

 20 22  0  0  0  0  0  0  0  0999 V2000
   -1.6790   -7.5360   34.6210 N   0  0  0  0  0  0  0  0  0  0  0  0
   -1.4300   -7.5130   33.3040 C   0  0  0  0  0  0  0  0  0  0  0  0
   -1.9260   -8.3210   32.3740 N   0  0  0  0  0  0  0  0  0  0  0  0
   -1.3720   -7.9350   31.1480 N   0  0  0  0  0  0  0  0  0  0  0  0
   -0.5800   -6.5910   32.7420 N   0  0  0  0  0  0  0  0  0  0  0  0
   -0.5660   -6.8980   31.3840 C   0  0  0  0  0  0  0  0  0  0  0  0
    0.2340   -6.0900   30.5320 C   0  0  0  0  0  0  0  0  0  0  0  0
    0.9440   -5.0580   31.0640 C   0  0  0  0  0  0  0  0  0  0  0  0
    0.1350   -5.5310   33.2650 C   0  0  0  0  0  0  0  0  0  0  0  0
    0.9040   -4.7400   32.4760 C   0  0  0  0  0  0  0  0  0  0  0  0
    1.6620   -3.5880   33.0460 C   0  0  0  0  0  0  0  0  0  0  0  0
    1.8840   -2.4290   32.3000 C   0  0  0  0  0  0  0  0  0  0  0  0
    2.5090   -1.3300   32.8630 C   0  0  0  0  0  0  0  0  0  0  0  0
    2.0990   -3.6370   34.3710 C   0  0  0  0  0  0  0  0  0  0  0  0
    2.7070   -2.5360   34.9490 C   0  0  0  0  0  0  0  0  0  0  0  0
    3.0990   -2.4640   36.2590 O   0  0  0  0  0  0  0  0  0  0  0  0
    4.1530   -3.3310   36.6800 C   0  0  0  0  0  0  0  0  0  0  0  0
    2.9190   -1.3710   34.1880 C   0  0  0  0  0  0  0  0  0  0  0  0
    3.5520   -0.3480   34.8390 O   0  0  0  0  0  0  0  0  0  0  0  0
    4.9790   -0.3700   34.8690 C   0  0  0  0  0  0  0  0  0  0  0  0
 20 19  1  0
 19 18  1  0
 18 13  1  0
 13 12  2  0
 12 11  1  0
 11 10  1  0
 10  8  1  0
  8  7  2  0
  7  6  1  0
  6  4  2  0
  4  3  1  0
  3  2  2  0
  2  1  1  0
  5  2  1  0
  6  5  1  0
  9  5  1  0
 10  9  2  0
 14 11  2  0
 15 14  1  0
 18 15  2  0
 16 15  1  0
 17 16  1  0
M  END
>  <id>  (133) 
133

>  <inchikey>  (133) 
WPZDOUWFJLYHBJ-UHFFFAOYSA-N

>  <alias>  (133) 
B0450b

>  <smiles>  (133) 
COc1ccc(-c2ccc3nnc(N)n3c2)cc1OC

>  <path>  (133) 
/opt/xchem-fragalysis-2/maxwin/BulkDock/TARGETS/D68EV3C/aligned_files/B0450b/B0450b.pdb

>  <distance_score>  (133) 
None

>  <energy_score>  (133) 
None

>  <compound>  (133) 
WPZDOUWFJLYHBJ-UHFFFAOYSA-N

>  <compound_id>  (133) 
108

>  <target>  (133) 
D68EV3C

>  <tags>  (133) 
['BAD count', '[Other] upload_1 2025-02-11', 'hits', 'MEDIOCRE count', 'Main status', 'GOOD count']

>  <inspirations>  (133) 
None

>  <subsites>  (133) 
None

>  <reference>  (133) 


>  <observation_longname>  (133) 
D68EV3CPROB-x0450_B_301_v1

>  <ConformerSites alias>  (133) 
1a - 7gp9/A/201

>  <CanonSites alias>  (133) 
1 - 7gp9/A/201/1

>  <CrystalformSites alias>  (133) 
F1e - 0436/B/301

>  <Quatassemblies alias>  (133) 
A1 - monomer

>  <Crystalforms alias>  (133) 
F1 - D68_3C_PROB

>  <ConformerSites upload name>  (133) 
1a - 7gp9/A/201

>  <CanonSites upload name>  (133) 
1 - 7gp9/A/201/1

>  <CrystalformSites upload name>  (133) 
F1e - D68EV3CPROB-x0436/B/301/1

>  <Quatassemblies upload name>  (133) 
A1 - monomer

>  <Crystalforms upload name>  (133) 
F1 - D68_3C_PROB

>  <ConformerSites short tag>  (133) 
1a - 7gp9/A/201

>  <CanonSites short tag>  (133) 
1 - 7gp9/A/201/1

>  <CrystalformSites short tag>  (133) 
F1e - 0436/B/301

>  <Quatassemblies short tag>  (133) 
A1 - monomer

>  <Crystalforms short tag>  (133) 
F1 - D68_3C_PROB

>  <Centroid res>  (133) 
7gp9/A/163/A_v1

>  <Experiment code>  (133) 
D68EV3CPROB-x0450

>  <Pose>  (133) 
B0450a

$$$$
B0454a
     RDKit          3D

 17 18  0  0  0  0  0  0  0  0999 V2000
   -1.6620   -4.1990   31.8530 O   0  0  0  0  0  0  0  0  0  0  0  0
   -0.5920   -4.0620   32.3960 C   0  0  0  0  0  0  0  0  0  0  0  0
    0.2330   -5.3070   32.7140 C   0  0  0  0  0  0  0  0  0  0  0  0
   -0.4700   -6.5150   32.2840 N   0  0  0  0  0  0  0  0  0  0  0  0
   -1.2400   -7.3280   33.0350 C   0  0  0  0  0  0  0  0  0  0  0  0
   -1.8130   -8.2420   32.2930 N   0  0  0  0  0  0  0  0  0  0  0  0
   -1.3990   -8.0140   30.9900 N   0  0  0  0  0  0  0  0  0  0  0  0
   -0.5970   -6.9850   31.0220 C   0  0  0  0  0  0  0  0  0  0  0  0
   -0.1360   -2.8360   32.7400 N   0  0  0  0  0  0  0  0  0  0  0  0
    1.0890   -2.5900   33.4840 C   0  0  0  0  0  0  0  0  0  0  0  0
   -0.9590   -1.6410   32.4380 C   0  0  0  0  0  0  0  0  0  0  0  0
   -0.8750   -1.1730   31.0020 C   0  0  0  0  0  0  0  0  0  0  0  0
   -0.3550    0.0790   30.7020 C   0  0  0  0  0  0  0  0  0  0  0  0
   -0.3140    0.5350   29.3960 C   0  0  0  0  0  0  0  0  0  0  0  0
   -0.7700   -0.2600   28.3690 C   0  0  0  0  0  0  0  0  0  0  0  0
   -1.2810   -1.5080   28.6480 C   0  0  0  0  0  0  0  0  0  0  0  0
   -1.3460   -1.9580   29.9560 C   0  0  0  0  0  0  0  0  0  0  0  0
 10  9  1  0
 11  9  1  0
 12 11  1  0
 12 17  2  0
 17 16  1  0
 16 15  2  0
 15 14  1  0
 14 13  2  0
 13 12  1  0
  9  2  1  0
  2  1  2  0
  3  2  1  0
  4  3  1  0
  4  8  1  0
  8  7  2  0
  7  6  1  0
  6  5  2  0
  5  4  1  0
M  END
>  <id>  (134) 
134

>  <inchikey>  (134) 
AVTXWKNPLMOCII-UHFFFAOYSA-N

>  <alias>  (134) 
B0454a

>  <smiles>  (134) 
CN(Cc1ccccc1)C(=O)Cn1cnnc1

>  <path>  (134) 
/opt/xchem-fragalysis-2/maxwin/BulkDock/TARGETS/D68EV3C/aligned_files/B0454a/B0454a_hippo.pdb

>  <distance_score>  (134) 
None

>  <energy_score>  (134) 
None

>  <compound>  (134) 
AVTXWKNPLMOCII-UHFFFAOYSA-N

>  <compound_id>  (134) 
109

>  <target>  (134) 
D68EV3C

>  <tags>  (134) 
['BAD count', '[Other] upload_1 2025-02-11', '[Other] iter1_frags', 'hits', 'MEDIOCRE count', 'Main status', 'GOOD count']

>  <inspirations>  (134) 
None

>  <subsites>  (134) 
None

>  <reference>  (134) 


>  <observation_longname>  (134) 
D68EV3CPROB-x0454_B_301_v1

>  <ConformerSites alias>  (134) 
1a - 7gp9/A/201

>  <CanonSites alias>  (134) 
1 - 7gp9/A/201/1

>  <CrystalformSites alias>  (134) 
F1e - 0436/B/301

>  <Quatassemblies alias>  (134) 
A1 - monomer

>  <Crystalforms alias>  (134) 
F1 - D68_3C_PROB

>  <ConformerSites upload name>  (134) 
1a - 7gp9/A/201

>  <CanonSites upload name>  (134) 
1 - 7gp9/A/201/1

>  <CrystalformSites upload name>  (134) 
F1e - D68EV3CPROB-x0436/B/301/1

>  <Quatassemblies upload name>  (134) 
A1 - monomer

>  <Crystalforms upload name>  (134) 
F1 - D68_3C_PROB

>  <ConformerSites short tag>  (134) 
1a - 7gp9/A/201

>  <CanonSites short tag>  (134) 
1 - 7gp9/A/201/1

>  <CrystalformSites short tag>  (134) 
F1e - 0436/B/301

>  <Quatassemblies short tag>  (134) 
A1 - monomer

>  <Crystalforms short tag>  (134) 
F1 - D68_3C_PROB

>  <Centroid res>  (134) 
7gp9/A/163/A_v1

>  <Experiment code>  (134) 
D68EV3CPROB-x0454

>  <Pose>  (134) 
B0454a

$$$$
B0454b
     RDKit          3D

 17 18  0  0  0  0  0  0  0  0999 V2000
   -1.4970   -4.2770   31.7960 O   0  0  0  0  0  0  0  0  0  0  0  0
   -0.4050   -4.2390   32.3450 C   0  0  0  0  0  0  0  0  0  0  0  0
    0.2550   -5.5350   32.8180 C   0  0  0  0  0  0  0  0  0  0  0  0
   -0.4680   -6.7000   32.3210 N   0  0  0  0  0  0  0  0  0  0  0  0
   -0.5970   -7.0930   31.0360 C   0  0  0  0  0  0  0  0  0  0  0  0
   -1.4190   -8.1010   30.9400 N   0  0  0  0  0  0  0  0  0  0  0  0
   -1.8390   -8.4000   32.2320 N   0  0  0  0  0  0  0  0  0  0  0  0
   -1.2440   -7.5490   33.0270 C   0  0  0  0  0  0  0  0  0  0  0  0
    0.2340   -3.0660   32.5620 N   0  0  0  0  0  0  0  0  0  0  0  0
    1.6080   -2.9260   33.0290 C   0  0  0  0  0  0  0  0  0  0  0  0
   -0.4800   -1.8040   32.2780 C   0  0  0  0  0  0  0  0  0  0  0  0
   -0.2840   -1.3300   30.8570 C   0  0  0  0  0  0  0  0  0  0  0  0
   -1.1140   -1.7750   29.8340 C   0  0  0  0  0  0  0  0  0  0  0  0
   -0.8800   -1.4010   28.5200 C   0  0  0  0  0  0  0  0  0  0  0  0
    0.1820   -0.5770   28.2120 C   0  0  0  0  0  0  0  0  0  0  0  0
    1.0030   -0.1170   29.2170 C   0  0  0  0  0  0  0  0  0  0  0  0
    0.7690   -0.4840   30.5340 C   0  0  0  0  0  0  0  0  0  0  0  0
 10  9  1  0
 11  9  1  0
 12 11  1  0
 12 17  2  0
 17 16  1  0
 16 15  2  0
 15 14  1  0
 14 13  2  0
 13 12  1  0
  9  2  1  0
  2  1  2  0
  3  2  1  0
  4  3  1  0
  4  8  1  0
  8  7  2  0
  7  6  1  0
  6  5  2  0
  5  4  1  0
M  END
>  <id>  (135) 
135

>  <inchikey>  (135) 
AVTXWKNPLMOCII-UHFFFAOYSA-N

>  <alias>  (135) 
B0454b

>  <smiles>  (135) 
CN(Cc1ccccc1)C(=O)Cn1cnnc1

>  <path>  (135) 
/opt/xchem-fragalysis-2/maxwin/BulkDock/TARGETS/D68EV3C/aligned_files/B0454b/B0454b_hippo.pdb

>  <distance_score>  (135) 
None

>  <energy_score>  (135) 
None

>  <compound>  (135) 
AVTXWKNPLMOCII-UHFFFAOYSA-N

>  <compound_id>  (135) 
109

>  <target>  (135) 
D68EV3C

>  <tags>  (135) 
['BAD count', '[Other] upload_1 2025-02-11', 'hits', 'MEDIOCRE count', 'Main status', 'GOOD count']

>  <inspirations>  (135) 
None

>  <subsites>  (135) 
None

>  <reference>  (135) 


>  <observation_longname>  (135) 
D68EV3CPROB-x0454_C_208_v1

>  <ConformerSites alias>  (135) 
1a - 7gp9/A/201

>  <CanonSites alias>  (135) 
1 - 7gp9/A/201/1

>  <CrystalformSites alias>  (135) 
F1f - 0446/A/209

>  <Quatassemblies alias>  (135) 
A1 - monomer

>  <Crystalforms alias>  (135) 
F1 - D68_3C_PROB

>  <ConformerSites upload name>  (135) 
1a - 7gp9/A/201

>  <CanonSites upload name>  (135) 
1 - 7gp9/A/201/1

>  <CrystalformSites upload name>  (135) 
F1f - D68EV3CPROB-x0446/A/209/1

>  <Quatassemblies upload name>  (135) 
A1 - monomer

>  <Crystalforms upload name>  (135) 
F1 - D68_3C_PROB

>  <ConformerSites short tag>  (135) 
1a - 7gp9/A/201

>  <CanonSites short tag>  (135) 
1 - 7gp9/A/201/1

>  <CrystalformSites short tag>  (135) 
F1f - 0446/A/209

>  <Quatassemblies short tag>  (135) 
A1 - monomer

>  <Crystalforms short tag>  (135) 
F1 - D68_3C_PROB

>  <Centroid res>  (135) 
7gp9/A/163/A_v1

>  <Experiment code>  (135) 
D68EV3CPROB-x0454

>  <Pose>  (135) 
B0454a

$$$$
B0455a
     RDKit          3D

 20 22  0  0  0  0  0  0  0  0999 V2000
    4.2300    0.6260   33.4930 O   0  0  0  0  0  0  0  0  0  0  0  0
    3.2090    0.1710   34.0010 C   0  0  0  0  0  0  0  0  0  0  0  0
    2.5750    0.7990   34.9910 N   0  0  0  0  0  0  0  0  0  0  0  0
    1.7770    0.0890   35.9740 C   0  0  0  0  0  0  0  0  0  0  0  0
    2.6190   -1.1150   33.5140 C   0  0  0  0  0  0  0  0  0  0  0  0
    1.8430   -1.1510   32.3590 C   0  0  0  0  0  0  0  0  0  0  0  0
    1.2760   -2.3370   31.9260 C   0  0  0  0  0  0  0  0  0  0  0  0
    1.4650   -3.5210   32.6360 C   0  0  0  0  0  0  0  0  0  0  0  0
    2.2570   -3.4870   33.7820 C   0  0  0  0  0  0  0  0  0  0  0  0
    2.8280   -2.3020   34.2120 C   0  0  0  0  0  0  0  0  0  0  0  0
    0.8030   -4.7760   32.2100 C   0  0  0  0  0  0  0  0  0  0  0  0
    0.0970   -5.5340   33.0860 C   0  0  0  0  0  0  0  0  0  0  0  0
   -0.5990   -6.6450   32.6530 N   0  0  0  0  0  0  0  0  0  0  0  0
   -1.4280   -7.5620   33.2780 C   0  0  0  0  0  0  0  0  0  0  0  0
   -1.6720   -7.5250   34.5930 N   0  0  0  0  0  0  0  0  0  0  0  0
   -1.9020   -8.4350   32.4000 N   0  0  0  0  0  0  0  0  0  0  0  0
   -1.3720   -8.1100   31.1530 N   0  0  0  0  0  0  0  0  0  0  0  0
   -0.5990   -7.0440   31.3190 C   0  0  0  0  0  0  0  0  0  0  0  0
    0.1580   -6.2820   30.3940 C   0  0  0  0  0  0  0  0  0  0  0  0
    0.8280   -5.1890   30.8310 C   0  0  0  0  0  0  0  0  0  0  0  0
  4  3  1  0
  3  2  1  0
  2  1  2  0
  5  2  1  0
  5 10  2  0
 10  9  1  0
  9  8  2  0
 11  8  1  0
 11 20  1  0
 20 19  2  0
 19 18  1  0
 18 17  2  0
 17 16  1  0
 16 14  2  0
 15 14  1  0
 14 13  1  0
 18 13  1  0
 13 12  1  0
 12 11  2  0
  8  7  1  0
  7  6  2  0
  6  5  1  0
M  END
>  <id>  (136) 
136

>  <inchikey>  (136) 
CKVYAEVDVNCGJD-UHFFFAOYSA-N

>  <alias>  (136) 
B0455a

>  <smiles>  (136) 
CNC(=O)c1ccc(-c2ccc3nnc(N)n3c2)cc1

>  <path>  (136) 
/opt/xchem-fragalysis-2/maxwin/BulkDock/TARGETS/D68EV3C/aligned_files/B0455a/B0455a.pdb

>  <distance_score>  (136) 
None

>  <energy_score>  (136) 
None

>  <compound>  (136) 
CKVYAEVDVNCGJD-UHFFFAOYSA-N

>  <compound_id>  (136) 
110

>  <target>  (136) 
D68EV3C

>  <tags>  (136) 
['BAD count', '[Other] upload_1 2025-02-11', '[Other] iter1_frags', 'hits', 'MEDIOCRE count', 'Main status', 'GOOD count']

>  <inspirations>  (136) 
None

>  <subsites>  (136) 
None

>  <reference>  (136) 


>  <observation_longname>  (136) 
D68EV3CPROB-x0455_A_209_v1

>  <ConformerSites alias>  (136) 
1a - 7gp9/A/201

>  <CanonSites alias>  (136) 
1 - 7gp9/A/201/1

>  <CrystalformSites alias>  (136) 
F1e - 0436/B/301

>  <Quatassemblies alias>  (136) 
A1 - monomer

>  <Crystalforms alias>  (136) 
F1 - D68_3C_PROB

>  <ConformerSites upload name>  (136) 
1a - 7gp9/A/201

>  <CanonSites upload name>  (136) 
1 - 7gp9/A/201/1

>  <CrystalformSites upload name>  (136) 
F1e - D68EV3CPROB-x0436/B/301/1

>  <Quatassemblies upload name>  (136) 
A1 - monomer

>  <Crystalforms upload name>  (136) 
F1 - D68_3C_PROB

>  <ConformerSites short tag>  (136) 
1a - 7gp9/A/201

>  <CanonSites short tag>  (136) 
1 - 7gp9/A/201/1

>  <CrystalformSites short tag>  (136) 
F1e - 0436/B/301

>  <Quatassemblies short tag>  (136) 
A1 - monomer

>  <Crystalforms short tag>  (136) 
F1 - D68_3C_PROB

>  <Centroid res>  (136) 
7gp9/A/163/A_v1

>  <Experiment code>  (136) 
D68EV3CPROB-x0455

>  <Pose>  (136) 
B0455a

$$$$
B0469a
     RDKit          3D

 20 22  0  0  0  0  0  0  0  0999 V2000
  -19.0300   -4.1520   13.8520 O   0  0  0  0  0  0  0  0  0  0  0  0
  -19.8100   -3.4640   14.5130 C   0  0  0  0  0  0  0  0  0  0  0  0
  -19.6030   -2.0840   14.8800 C   0  0  0  0  0  0  0  0  0  0  0  0
  -20.5530   -1.4000   15.5530 C   0  0  0  0  0  0  0  0  0  0  0  0
  -20.9930   -4.0150   14.9240 N   0  0  0  0  0  0  0  0  0  0  0  0
  -21.9590   -3.3420   15.6000 C   0  0  0  0  0  0  0  0  0  0  0  0
  -21.7780   -2.0350   15.9000 C   0  0  0  0  0  0  0  0  0  0  0  0
  -22.8670   -1.3280   16.4380 N   0  0  0  0  0  0  0  0  0  0  0  0
  -23.7310   -0.6370   15.6390 C   0  0  0  0  0  0  0  0  0  0  0  0
  -23.6110   -0.5780   14.4160 O   0  0  0  0  0  0  0  0  0  0  0  0
  -24.8790    0.0330   16.3680 C   0  0  0  0  0  0  0  0  0  0  0  0
  -26.1150   -0.8130   16.1710 C   0  0  0  0  0  0  0  0  0  0  0  0
  -26.2250   -2.0790   16.7480 C   0  0  0  0  0  0  0  0  0  0  0  0
  -25.6060   -2.5250   17.8940 O   0  0  0  0  0  0  0  0  0  0  0  0
  -26.1500   -3.8340   18.1190 C   0  0  0  0  0  0  0  0  0  0  0  0
  -27.2080   -4.0550   17.1730 O   0  0  0  0  0  0  0  0  0  0  0  0
  -27.3020   -2.8830   16.4550 C   0  0  0  0  0  0  0  0  0  0  0  0
  -28.3020   -2.4800   15.5850 C   0  0  0  0  0  0  0  0  0  0  0  0
  -28.2120   -1.2140   15.0250 C   0  0  0  0  0  0  0  0  0  0  0  0
  -27.1340   -0.3910   15.3180 C   0  0  0  0  0  0  0  0  0  0  0  0
 10  9  2  0
 11  9  1  0
 12 11  1  0
 12 20  2  0
 20 19  1  0
 19 18  2  0
 18 17  1  0
 17 13  2  0
 13 12  1  0
 14 13  1  0
 15 14  1  0
 16 15  1  0
 17 16  1  0
  9  8  1  0
  8  7  1  0
  7  4  1  0
  4  3  2  0
  3  2  1  0
  2  1  2  0
  5  2  1  0
  6  5  1  0
  7  6  2  0
M  END
>  <id>  (137) 
137

>  <inchikey>  (137) 
GPZUHDXFXQPQFB-UHFFFAOYSA-N

>  <alias>  (137) 
B0469a

>  <smiles>  (137) 
O=C(Cc1cccc2c1OCO2)Nc1ccc(=O)[nH]c1

>  <path>  (137) 
/opt/xchem-fragalysis-2/maxwin/BulkDock/TARGETS/D68EV3C/aligned_files/B0469a/B0469a.pdb

>  <distance_score>  (137) 
None

>  <energy_score>  (137) 
None

>  <compound>  (137) 
GPZUHDXFXQPQFB-UHFFFAOYSA-N

>  <compound_id>  (137) 
111

>  <target>  (137) 
D68EV3C

>  <tags>  (137) 
['BAD count', '[Other] upload_1 2025-02-11', 'hits', 'MEDIOCRE count', 'Main status', 'GOOD count']

>  <inspirations>  (137) 
None

>  <subsites>  (137) 
None

>  <reference>  (137) 


>  <observation_longname>  (137) 
D68EV3CPROB-x0469_A_209_v1

>  <ConformerSites alias>  (137) 
6a - B0798/A/308

>  <CanonSites alias>  (137) 
6 - B0798/A/308/1

>  <CrystalformSites alias>  (137) 
F1v - B0469/A/209

>  <Quatassemblies alias>  (137) 
A1 - monomer

>  <Crystalforms alias>  (137) 
F1 - D68_3C_PROB

>  <ConformerSites upload name>  (137) 
6a - D68EV3CPROB-x0798/A/308

>  <CanonSites upload name>  (137) 
6 - D68EV3CPROB-x0798/A/308/1

>  <CrystalformSites upload name>  (137) 
F1v - D68EV3CPROB-x0469/A/209/1

>  <Quatassemblies upload name>  (137) 
A1 - monomer

>  <Crystalforms upload name>  (137) 
F1 - D68_3C_PROB

>  <ConformerSites short tag>  (137) 
6a - B0798/A/308

>  <CanonSites short tag>  (137) 
6 - B0798/A/308/1

>  <CrystalformSites short tag>  (137) 
F1v - B0469/A/209

>  <Quatassemblies short tag>  (137) 
A1 - monomer

>  <Crystalforms short tag>  (137) 
F1 - D68_3C_PROB

>  <Centroid res>  (137) 
D68EV3CPROB-x0798/A/175/A_v1

>  <Experiment code>  (137) 
D68EV3CPROB-x0469

>  <Pose>  (137) 
B0469a

$$$$
B0495a
     RDKit          3D

 18 19  0  0  0  0  0  0  0  0999 V2000
  -13.1540  -37.6410   31.9290 Br  0  0  0  0  0  0  0  0  0  0  0  0
  -13.8160  -36.3010   33.0530 C   0  0  0  0  0  0  0  0  0  0  0  0
  -13.8340  -36.4320   34.3730 N   0  0  0  0  0  0  0  0  0  0  0  0
  -14.3840  -35.2370   34.8660 O   0  0  0  0  0  0  0  0  0  0  0  0
  -14.6710  -34.4390   33.8280 C   0  0  0  0  0  0  0  0  0  0  0  0
  -14.3530  -35.0130   32.6520 C   0  0  0  0  0  0  0  0  0  0  0  0
  -14.4720  -34.4790   31.2480 C   0  0  0  0  0  0  0  0  0  0  0  0
  -14.4940  -33.0160   31.1560 N   0  0  0  0  0  0  0  0  0  0  0  0
  -13.3090  -32.3760   31.7510 C   0  0  0  0  0  0  0  0  0  0  0  0
  -12.6210  -31.6050   30.6370 C   0  0  0  0  0  0  0  0  0  0  0  0
  -14.5480  -32.4960   29.7810 C   0  0  0  0  0  0  0  0  0  0  0  0
  -13.0730  -32.3390   29.3750 C   0  0  1  0  0  0  0  0  0  0  0  0
  -12.6870  -31.4900   27.8460 S   0  0  0  0  0  0  0  0  0  0  0  0
  -11.6450  -32.2330   27.2010 O   0  0  0  0  0  0  0  0  0  0  0  0
  -12.4690  -30.1090   28.1570 O   0  0  0  0  0  0  0  0  0  0  0  0
  -14.0290  -31.5680   26.8620 N   0  0  0  0  0  0  0  0  0  0  0  0
  -14.6990  -30.3410   26.4160 C   0  0  0  0  0  0  0  0  0  0  0  0
  -14.2070  -32.7150   25.9660 C   0  0  0  0  0  0  0  0  0  0  0  0
 18 16  1  0
 17 16  1  0
 16 13  1  0
 14 13  2  0
 15 13  2  0
 12 13  1  6
 12 10  1  0
 10  9  1  0
  9  8  1  0
  8  7  1  0
  7  6  1  0
  6  5  2  0
  5  4  1  0
  4  3  1  0
  3  2  2  0
  6  2  1  0
  2  1  1  0
 11  8  1  0
 12 11  1  0
M  END
>  <id>  (138) 
138

>  <inchikey>  (138) 
UAILPSBZZNOEFZ-VIFPVBQESA-N

>  <alias>  (138) 
B0495a

>  <smiles>  (138) 
CN(C)S(=O)(=O)[C@H]1CCN(Cc2conc2Br)C1

>  <path>  (138) 
/opt/xchem-fragalysis-2/maxwin/BulkDock/TARGETS/D68EV3C/aligned_files/B0495a/B0495a.pdb

>  <distance_score>  (138) 
None

>  <energy_score>  (138) 
None

>  <compound>  (138) 
UAILPSBZZNOEFZ-UHFFFAOYSA-N

>  <compound_id>  (138) 
112

>  <target>  (138) 
D68EV3C

>  <tags>  (138) 
['BAD count', '[Other] upload_1 2025-02-11', 'hits', 'MEDIOCRE count', 'Main status', 'GOOD count']

>  <inspirations>  (138) 
None

>  <subsites>  (138) 
None

>  <reference>  (138) 


>  <observation_longname>  (138) 
D68EV3CPROB-x0495_A_401_v1

>  <ConformerSites alias>  (138) 
5j - B1120/A/308

>  <CanonSites alias>  (138) 
5 - B1120/A/308/1

>  <CrystalformSites alias>  (138) 
F1s - B0495/A/401

>  <Quatassemblies alias>  (138) 
A1 - monomer

>  <Crystalforms alias>  (138) 
F1 - D68_3C_PROB

>  <ConformerSites upload name>  (138) 
5j - D68EV3CPROB-x1120/A/308

>  <CanonSites upload name>  (138) 
5 - D68EV3CPROB-x1120/A/308/1

>  <CrystalformSites upload name>  (138) 
F1s - D68EV3CPROB-x0495/A/401/1

>  <Quatassemblies upload name>  (138) 
A1 - monomer

>  <Crystalforms upload name>  (138) 
F1 - D68_3C_PROB

>  <ConformerSites short tag>  (138) 
5j - B1120/A/308

>  <CanonSites short tag>  (138) 
5 - B1120/A/308/1

>  <CrystalformSites short tag>  (138) 
F1s - B0495/A/401

>  <Quatassemblies short tag>  (138) 
A1 - monomer

>  <Crystalforms short tag>  (138) 
F1 - D68_3C_PROB

>  <Centroid res>  (138) 
D68EV3CPROB-x1120/B/115/A_v1

>  <Experiment code>  (138) 
D68EV3CPROB-x0495

>  <Pose>  (138) 
B0495a

$$$$
B0513a
     RDKit          3D

 26 29  0  0  0  0  0  0  0  0999 V2000
   -4.1480   -1.4750    6.3870 F   0  0  0  0  0  0  0  0  0  0  0  0
   -4.5290   -0.4280    7.1090 C   0  0  0  0  0  0  0  0  0  0  0  0
   -3.4580    0.0040    7.7670 F   0  0  0  0  0  0  0  0  0  0  0  0
   -4.8910    0.5240    6.2570 F   0  0  0  0  0  0  0  0  0  0  0  0
   -5.5020   -0.7020    7.9860 O   0  0  0  0  0  0  0  0  0  0  0  0
   -6.7540   -1.2020    7.5260 C   0  0  0  0  0  0  0  0  0  0  0  0
   -7.9070   -0.4860    7.8260 C   0  0  0  0  0  0  0  0  0  0  0  0
   -9.1600   -1.0170    7.5220 C   0  0  0  0  0  0  0  0  0  0  0  0
   -9.2270   -2.2600    6.9070 C   0  0  0  0  0  0  0  0  0  0  0  0
   -8.0740   -2.9570    6.5880 C   0  0  0  0  0  0  0  0  0  0  0  0
   -6.8310   -2.4320    6.8920 C   0  0  0  0  0  0  0  0  0  0  0  0
  -10.4530   -0.3020    7.8350 C   0  0  2  0  0  0  0  0  0  0  0  0
  -10.7030    0.6470    6.7900 O   0  0  0  0  0  0  0  0  0  0  0  0
  -12.0380    1.1760    6.8720 C   0  0  0  0  0  0  0  0  0  0  0  0
  -12.6980    0.8350    8.1920 C   0  0  0  0  0  0  0  0  0  0  0  0
  -11.7800    1.0980    9.3100 N   0  0  0  0  0  0  0  0  0  0  0  0
  -10.5000    0.3970    9.1860 C   0  0  0  0  0  0  0  0  0  0  0  0
  -12.3850    1.2660   10.5570 C   0  0  0  0  0  0  0  0  0  0  0  0
  -11.7790    2.2060   11.3890 N   0  0  0  0  0  0  0  0  0  0  0  0
  -10.6910    3.0200   11.2610 C   0  0  0  0  0  0  0  0  0  0  0  0
  -10.5060    3.7250   12.3440 N   0  0  0  0  0  0  0  0  0  0  0  0
  -11.5100    3.3830   13.2460 N   0  0  0  0  0  0  0  0  0  0  0  0
  -12.2750    2.4710   12.6630 C   0  0  0  0  0  0  0  0  0  0  0  0
  -13.4260    1.7750   13.1000 C   0  0  0  0  0  0  0  0  0  0  0  0
  -14.0200    0.8620   12.2820 C   0  0  0  0  0  0  0  0  0  0  0  0
  -13.5130    0.5860   10.9950 C   0  0  0  0  0  0  0  0  0  0  0  0
  3  2  1  0
  4  2  1  0
  2  1  1  0
  5  2  1  0
  6  5  1  0
  6 11  2  0
 11 10  1  0
 10  9  2  0
  9  8  1  0
 12  8  1  6
 12 17  1  0
 17 16  1  0
 18 16  1  0
 18 26  2  0
 26 25  1  0
 25 24  2  0
 24 23  1  0
 23 22  2  0
 22 21  1  0
 21 20  2  0
 20 19  1  0
 19 18  1  0
 23 19  1  0
 16 15  1  0
 15 14  1  0
 14 13  1  0
 13 12  1  0
  8  7  2  0
  7  6  1  0
M  END
>  <id>  (139) 
139

>  <inchikey>  (139) 
BAOSFOHTMXUOCD-CQSZACIVSA-N

>  <alias>  (139) 
B0513a

>  <smiles>  (139) 
FC(F)(F)Oc1cccc([C@H]2CN(c3cccc4nncn34)CCO2)c1

>  <path>  (139) 
/opt/xchem-fragalysis-2/maxwin/BulkDock/TARGETS/D68EV3C/aligned_files/B0513a/B0513a.pdb

>  <distance_score>  (139) 
None

>  <energy_score>  (139) 
None

>  <compound>  (139) 
BAOSFOHTMXUOCD-UHFFFAOYSA-N

>  <compound_id>  (139) 
113

>  <target>  (139) 
D68EV3C

>  <tags>  (139) 
['BAD count', '[Other] upload_1 2025-02-11', 'hits', 'MEDIOCRE count', 'Main status', 'GOOD count']

>  <inspirations>  (139) 
None

>  <subsites>  (139) 
None

>  <reference>  (139) 


>  <observation_longname>  (139) 
D68EV3CPROB-x0513_A_308_v1

>  <ConformerSites alias>  (139) 
3a - 7gpw/B/202

>  <CanonSites alias>  (139) 
3 - 7gpw/B/202/1

>  <CrystalformSites alias>  (139) 
F1o - 0426/A/209

>  <Quatassemblies alias>  (139) 
A1 - monomer

>  <Crystalforms alias>  (139) 
F1 - D68_3C_PROB

>  <ConformerSites upload name>  (139) 
3a - 7gpw/B/202

>  <CanonSites upload name>  (139) 
3 - 7gpw/B/202/1

>  <CrystalformSites upload name>  (139) 
F1o - D68EV3CPROB-x0426/A/209/1

>  <Quatassemblies upload name>  (139) 
A1 - monomer

>  <Crystalforms upload name>  (139) 
F1 - D68_3C_PROB

>  <ConformerSites short tag>  (139) 
3a - 7gpw/B/202

>  <CanonSites short tag>  (139) 
3 - 7gpw/B/202/1

>  <CrystalformSites short tag>  (139) 
F1o - 0426/A/209

>  <Quatassemblies short tag>  (139) 
A1 - monomer

>  <Crystalforms short tag>  (139) 
F1 - D68_3C_PROB

>  <Centroid res>  (139) 
7gpw/B/74/B_v1

>  <Experiment code>  (139) 
D68EV3CPROB-x0513

>  <Pose>  (139) 
B0513a

$$$$
B0517a
     RDKit          3D

 19 20  0  0  0  0  0  0  0  0999 V2000
   -0.6870   -6.7860   35.6590 O   0  0  0  0  0  0  0  0  0  0  0  0
   -0.5650   -6.7140   34.4420 C   0  0  0  0  0  0  0  0  0  0  0  0
   -1.3540   -7.4450   33.5840 N   0  0  0  0  0  0  0  0  0  0  0  0
   -1.2920   -7.4460   32.1950 C   0  0  0  0  0  0  0  0  0  0  0  0
   -2.0540   -8.1810   31.5430 O   0  0  0  0  0  0  0  0  0  0  0  0
   -0.3010   -6.5710   31.6400 C   0  0  0  0  0  0  0  0  0  0  0  0
    0.4790   -5.8450   32.4600 C   0  0  0  0  0  0  0  0  0  0  0  0
    0.3700   -5.9040   33.8280 N   0  0  0  0  0  0  0  0  0  0  0  0
    1.2790   -5.1260   34.6650 C   0  0  0  0  0  0  0  0  0  0  0  0
    2.3840   -6.0100   35.2180 C   0  0  0  0  0  0  0  0  0  0  0  0
    2.6880   -7.0690   34.6680 O   0  0  0  0  0  0  0  0  0  0  0  0
    2.9740   -5.5550   36.3250 N   0  0  0  0  0  0  0  0  0  0  0  0
    3.7720   -6.3990   37.2060 C   0  0  0  0  0  0  0  0  0  0  0  0
    3.0130   -6.9730   38.3790 C   0  0  0  0  0  0  0  0  0  0  0  0
    1.6290   -7.0990   38.3530 C   0  0  0  0  0  0  0  0  0  0  0  0
    0.9450   -7.6410   39.4290 C   0  0  0  0  0  0  0  0  0  0  0  0
    1.6330   -8.0600   40.5480 C   0  0  0  0  0  0  0  0  0  0  0  0
    3.0060   -7.9400   40.5880 C   0  0  0  0  0  0  0  0  0  0  0  0
    3.6920   -7.4000   39.5120 C   0  0  0  0  0  0  0  0  0  0  0  0
 11 10  2  0
 10  9  1  0
  9  8  1  0
  8  7  1  0
  7  6  2  0
  6  4  1  0
  5  4  2  0
  4  3  1  0
  3  2  1  0
  8  2  1  0
  2  1  2  0
 12 10  1  0
 13 12  1  0
 14 13  1  0
 14 19  2  0
 19 18  1  0
 18 17  2  0
 17 16  1  0
 16 15  2  0
 15 14  1  0
M  END
>  <id>  (140) 
140

>  <inchikey>  (140) 
QYWZZQOITPPOQW-UHFFFAOYSA-N

>  <alias>  (140) 
B0517a

>  <smiles>  (140) 
O=C(Cn1ccc(=O)[nH]c1=O)NCc1ccccc1

>  <path>  (140) 
/opt/xchem-fragalysis-2/maxwin/BulkDock/TARGETS/D68EV3C/aligned_files/B0517a/B0517a.pdb

>  <distance_score>  (140) 
None

>  <energy_score>  (140) 
None

>  <compound>  (140) 
QYWZZQOITPPOQW-UHFFFAOYSA-N

>  <compound_id>  (140) 
114

>  <target>  (140) 
D68EV3C

>  <tags>  (140) 
['BAD count', '[Other] upload_1 2025-02-11', 'hits', 'MEDIOCRE count', 'Main status', 'GOOD count']

>  <inspirations>  (140) 
None

>  <subsites>  (140) 
None

>  <reference>  (140) 


>  <observation_longname>  (140) 
D68EV3CPROB-x0517_A_209_v1

>  <ConformerSites alias>  (140) 
11b - B0517/A/209

>  <CanonSites alias>  (140) 
11 - B0517/A/209/1

>  <CrystalformSites alias>  (140) 
F1ah - B0517/A/209

>  <Quatassemblies alias>  (140) 
A1 - monomer

>  <Crystalforms alias>  (140) 
F1 - D68_3C_PROB

>  <ConformerSites upload name>  (140) 
11b - D68EV3CPROB-x0517/A/209

>  <CanonSites upload name>  (140) 
11 - D68EV3CPROB-x0517/A/209/1

>  <CrystalformSites upload name>  (140) 
F1ah - D68EV3CPROB-x0517/A/209/1

>  <Quatassemblies upload name>  (140) 
A1 - monomer

>  <Crystalforms upload name>  (140) 
F1 - D68_3C_PROB

>  <ConformerSites short tag>  (140) 
11b - B0517/A/209

>  <CanonSites short tag>  (140) 
11 - B0517/A/209/1

>  <CrystalformSites short tag>  (140) 
F1ah - B0517/A/209

>  <Quatassemblies short tag>  (140) 
A1 - monomer

>  <Crystalforms short tag>  (140) 
F1 - D68_3C_PROB

>  <Centroid res>  (140) 
D68EV3CPROB-x0517/A/142/A_v1

>  <Experiment code>  (140) 
D68EV3CPROB-x0517

>  <Pose>  (140) 
B0517a

$$$$
B0525a
     RDKit          3D

 22 24  0  0  0  0  0  0  0  0999 V2000
   -1.4560   -4.1850   31.8380 O   0  0  0  0  0  0  0  0  0  0  0  0
   -0.2440   -4.2140   31.9860 C   0  0  0  0  0  0  0  0  0  0  0  0
    0.4400   -5.4840   32.4920 C   0  0  0  0  0  0  0  0  0  0  0  0
   -0.3610   -6.6630   32.1840 N   0  0  0  0  0  0  0  0  0  0  0  0
   -1.0810   -7.4110   33.0440 C   0  0  0  0  0  0  0  0  0  0  0  0
   -1.7500   -8.3340   32.4050 N   0  0  0  0  0  0  0  0  0  0  0  0
   -1.4450   -8.1850   31.0540 N   0  0  0  0  0  0  0  0  0  0  0  0
   -0.6120   -7.1850   30.9650 C   0  0  0  0  0  0  0  0  0  0  0  0
    0.5410   -3.1560   31.6870 N   0  0  0  0  0  0  0  0  0  0  0  0
   -0.0270   -1.9490   31.0860 C   0  0  0  0  0  0  0  0  0  0  0  0
    0.4650   -1.8700   29.6410 C   0  0  2  0  0  0  0  0  0  0  0  0
    1.9920   -1.7510   29.6320 C   0  0  0  0  0  0  0  0  0  0  0  0
    2.6410   -2.8870   30.4280 C   0  0  0  0  0  0  0  0  0  0  0  0
    2.0010   -3.0400   31.8030 C   0  0  0  0  0  0  0  0  0  0  0  0
   -0.2690   -0.8150   28.8320 C   0  0  0  0  0  0  0  0  0  0  0  0
    0.1120    0.5200   28.8320 C   0  0  0  0  0  0  0  0  0  0  0  0
   -0.6080    1.4680   28.1250 C   0  0  0  0  0  0  0  0  0  0  0  0
   -1.7300    1.1110   27.3890 C   0  0  0  0  0  0  0  0  0  0  0  0
   -2.5480    2.1430   26.6500 C   0  0  0  0  0  0  0  0  0  0  0  0
   -1.7800    3.2800   26.2610 O   0  0  0  0  0  0  0  0  0  0  0  0
   -2.1000   -0.2260   27.3740 C   0  0  0  0  0  0  0  0  0  0  0  0
   -1.3860   -1.1710   28.0880 C   0  0  0  0  0  0  0  0  0  0  0  0
  2  1  2  0
  3  2  1  0
  4  3  1  0
  4  8  1  0
  8  7  2  0
  7  6  1  0
  6  5  2  0
  5  4  1  0
  9  2  1  0
  9 14  1  0
 14 13  1  0
 13 12  1  0
 12 11  1  0
 11 15  1  1
 15 22  2  0
 22 21  1  0
 21 18  2  0
 19 18  1  0
 20 19  1  0
 18 17  1  0
 17 16  2  0
 16 15  1  0
 11 10  1  0
 10  9  1  0
M  END
>  <id>  (141) 
141

>  <inchikey>  (141) 
QDVBRKQJPHDTEK-HNNXBMFYSA-N

>  <alias>  (141) 
B0525a

>  <smiles>  (141) 
O=C(Cn1cnnc1)N1CCC[C@H](c2ccc(CO)cc2)C1

>  <path>  (141) 
/opt/xchem-fragalysis-2/maxwin/BulkDock/TARGETS/D68EV3C/aligned_files/B0525a/B0525a_hippo.pdb

>  <distance_score>  (141) 
None

>  <energy_score>  (141) 
None

>  <compound>  (141) 
QDVBRKQJPHDTEK-UHFFFAOYSA-N

>  <compound_id>  (141) 
115

>  <target>  (141) 
D68EV3C

>  <tags>  (141) 
['BAD count', '[Other] upload_1 2025-02-11', '[Other] iter1_frags', 'hits', 'MEDIOCRE count', 'Main status', 'GOOD count']

>  <inspirations>  (141) 
None

>  <subsites>  (141) 
None

>  <reference>  (141) 


>  <observation_longname>  (141) 
D68EV3CPROB-x0525_A_209_v1

>  <ConformerSites alias>  (141) 
1a - 7gp9/A/201

>  <CanonSites alias>  (141) 
1 - 7gp9/A/201/1

>  <CrystalformSites alias>  (141) 
F1f - 0446/A/209

>  <Quatassemblies alias>  (141) 
A1 - monomer

>  <Crystalforms alias>  (141) 
F1 - D68_3C_PROB

>  <ConformerSites upload name>  (141) 
1a - 7gp9/A/201

>  <CanonSites upload name>  (141) 
1 - 7gp9/A/201/1

>  <CrystalformSites upload name>  (141) 
F1f - D68EV3CPROB-x0446/A/209/1

>  <Quatassemblies upload name>  (141) 
A1 - monomer

>  <Crystalforms upload name>  (141) 
F1 - D68_3C_PROB

>  <ConformerSites short tag>  (141) 
1a - 7gp9/A/201

>  <CanonSites short tag>  (141) 
1 - 7gp9/A/201/1

>  <CrystalformSites short tag>  (141) 
F1f - 0446/A/209

>  <Quatassemblies short tag>  (141) 
A1 - monomer

>  <Crystalforms short tag>  (141) 
F1 - D68_3C_PROB

>  <Centroid res>  (141) 
7gp9/A/163/A_v1

>  <Experiment code>  (141) 
D68EV3CPROB-x0525

>  <Pose>  (141) 
B0525a

$$$$
B0525b
     RDKit          3D

 22 24  0  0  0  0  0  0  0  0999 V2000
   -1.6740   -4.2090   31.7740 O   0  0  0  0  0  0  0  0  0  0  0  0
   -0.4770   -4.2380   31.9900 C   0  0  0  0  0  0  0  0  0  0  0  0
    0.1550   -5.4440   32.6820 C   0  0  0  0  0  0  0  0  0  0  0  0
   -0.5200   -6.6770   32.2890 N   0  0  0  0  0  0  0  0  0  0  0  0
   -0.5930   -7.2110   31.0530 C   0  0  0  0  0  0  0  0  0  0  0  0
   -1.3580   -8.2690   31.0500 N   0  0  0  0  0  0  0  0  0  0  0  0
   -1.8030   -8.4420   32.3560 N   0  0  0  0  0  0  0  0  0  0  0  0
   -1.2780   -7.4770   33.0630 C   0  0  0  0  0  0  0  0  0  0  0  0
    0.3430   -3.2400   31.6010 N   0  0  0  0  0  0  0  0  0  0  0  0
   -0.2230   -2.0030   31.0610 C   0  0  0  0  0  0  0  0  0  0  0  0
    0.2330   -1.8820   29.6090 C   0  0  2  0  0  0  0  0  0  0  0  0
    1.7550   -1.7230   29.5620 C   0  0  0  0  0  0  0  0  0  0  0  0
    2.3920   -2.0190   30.9190 C   0  0  0  0  0  0  0  0  0  0  0  0
    1.8120   -3.2770   31.5570 C   0  0  0  0  0  0  0  0  0  0  0  0
   -0.5280   -0.7990   28.8700 C   0  0  0  0  0  0  0  0  0  0  0  0
   -1.4390   -1.1330   27.8810 C   0  0  0  0  0  0  0  0  0  0  0  0
   -2.1220   -0.1570   27.1810 C   0  0  0  0  0  0  0  0  0  0  0  0
   -1.9320    1.1860   27.4610 C   0  0  0  0  0  0  0  0  0  0  0  0
   -2.6890    2.2360   26.6880 C   0  0  0  0  0  0  0  0  0  0  0  0
   -2.0360    3.4980   26.6980 O   0  0  0  0  0  0  0  0  0  0  0  0
   -1.0330    1.5220   28.4610 C   0  0  0  0  0  0  0  0  0  0  0  0
   -0.3400    0.5450   29.1530 C   0  0  0  0  0  0  0  0  0  0  0  0
  2  1  2  0
  3  2  1  0
  4  3  1  0
  4  8  1  0
  8  7  2  0
  7  6  1  0
  6  5  2  0
  5  4  1  0
  9  2  1  0
  9 14  1  0
 14 13  1  0
 13 12  1  0
 12 11  1  0
 11 15  1  1
 15 22  2  0
 22 21  1  0
 21 18  2  0
 19 18  1  0
 20 19  1  0
 18 17  1  0
 17 16  2  0
 16 15  1  0
 11 10  1  0
 10  9  1  0
M  END
>  <id>  (142) 
142

>  <inchikey>  (142) 
QDVBRKQJPHDTEK-HNNXBMFYSA-N

>  <alias>  (142) 
B0525b

>  <smiles>  (142) 
O=C(Cn1cnnc1)N1CCC[C@H](c2ccc(CO)cc2)C1

>  <path>  (142) 
/opt/xchem-fragalysis-2/maxwin/BulkDock/TARGETS/D68EV3C/aligned_files/B0525b/B0525b_hippo.pdb

>  <distance_score>  (142) 
None

>  <energy_score>  (142) 
None

>  <compound>  (142) 
QDVBRKQJPHDTEK-UHFFFAOYSA-N

>  <compound_id>  (142) 
115

>  <target>  (142) 
D68EV3C

>  <tags>  (142) 
['BAD count', '[Other] upload_1 2025-02-11', 'hits', 'MEDIOCRE count', 'Main status', 'GOOD count']

>  <inspirations>  (142) 
None

>  <subsites>  (142) 
None

>  <reference>  (142) 


>  <observation_longname>  (142) 
D68EV3CPROB-x0525_B_301_v1

>  <ConformerSites alias>  (142) 
1a - 7gp9/A/201

>  <CanonSites alias>  (142) 
1 - 7gp9/A/201/1

>  <CrystalformSites alias>  (142) 
F1e - 0436/B/301

>  <Quatassemblies alias>  (142) 
A1 - monomer

>  <Crystalforms alias>  (142) 
F1 - D68_3C_PROB

>  <ConformerSites upload name>  (142) 
1a - 7gp9/A/201

>  <CanonSites upload name>  (142) 
1 - 7gp9/A/201/1

>  <CrystalformSites upload name>  (142) 
F1e - D68EV3CPROB-x0436/B/301/1

>  <Quatassemblies upload name>  (142) 
A1 - monomer

>  <Crystalforms upload name>  (142) 
F1 - D68_3C_PROB

>  <ConformerSites short tag>  (142) 
1a - 7gp9/A/201

>  <CanonSites short tag>  (142) 
1 - 7gp9/A/201/1

>  <CrystalformSites short tag>  (142) 
F1e - 0436/B/301

>  <Quatassemblies short tag>  (142) 
A1 - monomer

>  <Crystalforms short tag>  (142) 
F1 - D68_3C_PROB

>  <Centroid res>  (142) 
7gp9/A/163/A_v1

>  <Experiment code>  (142) 
D68EV3CPROB-x0525

>  <Pose>  (142) 
B0525a

$$$$
B0541a
     RDKit          3D

 25 28  0  0  0  0  0  0  0  0999 V2000
   -4.5960   -3.0550    6.1350 O   0  0  0  0  0  0  0  0  0  0  0  0
   -4.7650   -1.6400    6.3050 S   0  0  0  0  0  0  0  0  0  0  0  0
   -4.4490   -0.7840    5.1980 O   0  0  0  0  0  0  0  0  0  0  0  0
   -3.8210   -1.1330    7.6930 C   0  0  0  0  0  0  0  0  0  0  0  0
   -6.4430   -1.3410    6.7770 C   0  0  0  0  0  0  0  0  0  0  0  0
   -7.2510   -2.4050    7.1420 C   0  0  0  0  0  0  0  0  0  0  0  0
   -8.5650   -2.1660    7.4980 C   0  0  0  0  0  0  0  0  0  0  0  0
   -9.0940   -0.8830    7.4810 C   0  0  0  0  0  0  0  0  0  0  0  0
   -8.2640    0.1700    7.1160 C   0  0  0  0  0  0  0  0  0  0  0  0
   -6.9430   -0.0480    6.7630 C   0  0  0  0  0  0  0  0  0  0  0  0
  -10.5500   -0.6640    7.8100 C   0  0  2  0  0  0  0  0  0  0  0  0
  -11.1290    0.1450    6.7790 O   0  0  0  0  0  0  0  0  0  0  0  0
  -12.5650    0.1240    6.8540 C   0  0  0  0  0  0  0  0  0  0  0  0
  -13.0400   -0.0770    8.2770 C   0  0  0  0  0  0  0  0  0  0  0  0
  -12.1060    0.5550    9.2170 N   0  0  0  0  0  0  0  0  0  0  0  0
  -10.7510    0.0010    9.1620 C   0  0  0  0  0  0  0  0  0  0  0  0
  -12.6260    0.9460   10.4510 C   0  0  0  0  0  0  0  0  0  0  0  0
  -12.1560    2.1630   10.9290 N   0  0  0  0  0  0  0  0  0  0  0  0
  -11.2990    3.1020   10.4310 C   0  0  0  0  0  0  0  0  0  0  0  0
  -11.1810    4.1070   11.2540 N   0  0  0  0  0  0  0  0  0  0  0  0
  -11.9870    3.8440   12.3600 N   0  0  0  0  0  0  0  0  0  0  0  0
  -12.5710    2.6710   12.1570 C   0  0  0  0  0  0  0  0  0  0  0  0
  -13.4920    1.9170   12.9230 C   0  0  0  0  0  0  0  0  0  0  0  0
  -13.9580    0.7240   12.4470 C   0  0  0  0  0  0  0  0  0  0  0  0
  -13.5410    0.2170   11.1960 C   0  0  0  0  0  0  0  0  0  0  0  0
  4  2  1  0
  3  2  2  0
  2  1  2  0
  5  2  1  0
  5 10  2  0
 10  9  1  0
  9  8  2  0
 11  8  1  6
 11 16  1  0
 16 15  1  0
 17 15  1  0
 17 25  2  0
 25 24  1  0
 24 23  2  0
 23 22  1  0
 22 21  2  0
 21 20  1  0
 20 19  2  0
 19 18  1  0
 18 17  1  0
 22 18  1  0
 15 14  1  0
 14 13  1  0
 13 12  1  0
 12 11  1  0
  8  7  1  0
  7  6  2  0
  6  5  1  0
M  END
>  <id>  (143) 
143

>  <inchikey>  (143) 
GAAWFMASBWHQIA-OAHLLOKOSA-N

>  <alias>  (143) 
B0541a

>  <smiles>  (143) 
CS(=O)(=O)c1ccc([C@H]2CN(c3cccc4nncn34)CCO2)cc1

>  <path>  (143) 
/opt/xchem-fragalysis-2/maxwin/BulkDock/TARGETS/D68EV3C/aligned_files/B0541a/B0541a.pdb

>  <distance_score>  (143) 
None

>  <energy_score>  (143) 
None

>  <compound>  (143) 
GAAWFMASBWHQIA-UHFFFAOYSA-N

>  <compound_id>  (143) 
116

>  <target>  (143) 
D68EV3C

>  <tags>  (143) 
['BAD count', '[Other] upload_1 2025-02-11', 'hits', 'MEDIOCRE count', 'Main status', 'GOOD count']

>  <inspirations>  (143) 
None

>  <subsites>  (143) 
None

>  <reference>  (143) 


>  <observation_longname>  (143) 
D68EV3CPROB-x0541_A_308_v1

>  <ConformerSites alias>  (143) 
3a - 7gpw/B/202

>  <CanonSites alias>  (143) 
3 - 7gpw/B/202/1

>  <CrystalformSites alias>  (143) 
F1o - 0426/A/209

>  <Quatassemblies alias>  (143) 
A1 - monomer

>  <Crystalforms alias>  (143) 
F1 - D68_3C_PROB

>  <ConformerSites upload name>  (143) 
3a - 7gpw/B/202

>  <CanonSites upload name>  (143) 
3 - 7gpw/B/202/1

>  <CrystalformSites upload name>  (143) 
F1o - D68EV3CPROB-x0426/A/209/1

>  <Quatassemblies upload name>  (143) 
A1 - monomer

>  <Crystalforms upload name>  (143) 
F1 - D68_3C_PROB

>  <ConformerSites short tag>  (143) 
3a - 7gpw/B/202

>  <CanonSites short tag>  (143) 
3 - 7gpw/B/202/1

>  <CrystalformSites short tag>  (143) 
F1o - 0426/A/209

>  <Quatassemblies short tag>  (143) 
A1 - monomer

>  <Crystalforms short tag>  (143) 
F1 - D68_3C_PROB

>  <Centroid res>  (143) 
7gpw/B/74/B_v1

>  <Experiment code>  (143) 
D68EV3CPROB-x0541

>  <Pose>  (143) 
B0541a

$$$$
B0691a
     RDKit          3D

 22 25  0  0  0  0  0  0  0  0999 V2000
    2.1190   -7.6800   35.1020 O   0  0  0  0  0  0  0  0  0  0  0  0
    0.9230   -7.1620   35.7050 S   0  0  0  0  0  0  0  0  0  0  0  0
   -0.0540   -8.1010   36.1650 O   0  0  0  0  0  0  0  0  0  0  0  0
    0.2370   -5.8500   34.8320 N   0  0  0  0  0  0  0  0  0  0  0  0
    0.0060   -5.8030   33.4410 C   0  0  0  0  0  0  0  0  0  0  0  0
   -0.8110   -6.7710   32.8610 N   0  0  0  0  0  0  0  0  0  0  0  0
   -1.5910   -7.7620   33.3790 C   0  0  0  0  0  0  0  0  0  0  0  0
   -2.0800   -8.5100   32.4320 N   0  0  0  0  0  0  0  0  0  0  0  0
   -1.6460   -7.9910   31.2170 N   0  0  0  0  0  0  0  0  0  0  0  0
   -0.8850   -6.9440   31.4810 C   0  0  0  0  0  0  0  0  0  0  0  0
   -0.1310   -6.0820   30.6520 C   0  0  0  0  0  0  0  0  0  0  0  0
    0.6360   -5.1000   31.2080 C   0  0  0  0  0  0  0  0  0  0  0  0
    0.7070   -4.9470   32.6090 C   0  0  0  0  0  0  0  0  0  0  0  0
   -0.1050   -4.6060   35.5590 C   0  0  0  0  0  0  0  0  0  0  0  0
    0.3820   -4.8060   36.9890 C   0  0  0  0  0  0  0  0  0  0  0  0
    1.3360   -6.0070   37.0170 C   0  0  1  0  0  0  0  0  0  0  0  0
    1.4160   -6.7990   38.3020 C   0  0  0  0  0  0  0  0  0  0  0  0
    0.2830   -7.0390   39.0740 C   0  0  0  0  0  0  0  0  0  0  0  0
    0.3480   -7.8640   40.1870 C   0  0  0  0  0  0  0  0  0  0  0  0
    1.5440   -8.4600   40.5410 C   0  0  0  0  0  0  0  0  0  0  0  0
    2.6730   -8.2200   39.7930 C   0  0  0  0  0  0  0  0  0  0  0  0
    2.6130   -7.3900   38.6850 C   0  0  0  0  0  0  0  0  0  0  0  0
  3  2  2  0
  2  1  2  0
  2 16  1  0
 16 17  1  1
 17 22  2  0
 22 21  1  0
 21 20  2  0
 20 19  1  0
 19 18  2  0
 18 17  1  0
 16 15  1  0
 15 14  1  0
 14  4  1  0
  4  2  1  0
  5  4  1  0
  5 13  2  0
 13 12  1  0
 12 11  2  0
 11 10  1  0
 10  9  2  0
  9  8  1  0
  8  7  2  0
  7  6  1  0
  6  5  1  0
 10  6  1  0
M  END
>  <id>  (144) 
144

>  <inchikey>  (144) 
YWAUSXIRKVBYLY-ZDUSSCGKSA-N

>  <alias>  (144) 
B0691a

>  <smiles>  (144) 
O=S1(=O)[C@H](c2ccccc2)CCN1c1cccc2nncn12

>  <path>  (144) 
/opt/xchem-fragalysis-2/maxwin/BulkDock/TARGETS/D68EV3C/aligned_files/B0691a/B0691a.pdb

>  <distance_score>  (144) 
None

>  <energy_score>  (144) 
None

>  <compound>  (144) 
YWAUSXIRKVBYLY-UHFFFAOYSA-N

>  <compound_id>  (144) 
117

>  <target>  (144) 
D68EV3C

>  <tags>  (144) 
['BAD count', '[Other] upload_1 2025-02-11', '[Other] iter1_frags', 'hits', 'MEDIOCRE count', 'Main status', 'GOOD count']

>  <inspirations>  (144) 
None

>  <subsites>  (144) 
None

>  <reference>  (144) 


>  <observation_longname>  (144) 
D68EV3CPROB-x0691_B_207_v1

>  <ConformerSites alias>  (144) 
1a - 7gp9/A/201

>  <CanonSites alias>  (144) 
1 - 7gp9/A/201/1

>  <CrystalformSites alias>  (144) 
F1e - 0436/B/301

>  <Quatassemblies alias>  (144) 
A1 - monomer

>  <Crystalforms alias>  (144) 
F1 - D68_3C_PROB

>  <ConformerSites upload name>  (144) 
1a - 7gp9/A/201

>  <CanonSites upload name>  (144) 
1 - 7gp9/A/201/1

>  <CrystalformSites upload name>  (144) 
F1e - D68EV3CPROB-x0436/B/301/1

>  <Quatassemblies upload name>  (144) 
A1 - monomer

>  <Crystalforms upload name>  (144) 
F1 - D68_3C_PROB

>  <ConformerSites short tag>  (144) 
1a - 7gp9/A/201

>  <CanonSites short tag>  (144) 
1 - 7gp9/A/201/1

>  <CrystalformSites short tag>  (144) 
F1e - 0436/B/301

>  <Quatassemblies short tag>  (144) 
A1 - monomer

>  <Crystalforms short tag>  (144) 
F1 - D68_3C_PROB

>  <Centroid res>  (144) 
7gp9/A/163/A_v1

>  <Experiment code>  (144) 
D68EV3CPROB-x0691

>  <Pose>  (144) 
B0691a

$$$$
B0691b
     RDKit          3D

 22 25  0  0  0  0  0  0  0  0999 V2000
    2.1460   -7.7520   34.9900 O   0  0  0  0  0  0  0  0  0  0  0  0
    1.0180   -7.2060   35.6870 S   0  0  0  0  0  0  0  0  0  0  0  0
    0.0320   -8.1240   36.1700 O   0  0  0  0  0  0  0  0  0  0  0  0
    0.3620   -5.8350   34.9040 N   0  0  0  0  0  0  0  0  0  0  0  0
    0.0920   -5.7260   33.5070 C   0  0  0  0  0  0  0  0  0  0  0  0
   -0.6890   -6.6990   32.8620 N   0  0  0  0  0  0  0  0  0  0  0  0
   -1.4830   -7.7100   33.3280 C   0  0  0  0  0  0  0  0  0  0  0  0
   -1.9830   -8.4080   32.3430 N   0  0  0  0  0  0  0  0  0  0  0  0
   -1.5190   -7.8450   31.1560 N   0  0  0  0  0  0  0  0  0  0  0  0
   -0.7450   -6.8110   31.4760 C   0  0  0  0  0  0  0  0  0  0  0  0
   -0.0010   -5.8870   30.6950 C   0  0  0  0  0  0  0  0  0  0  0  0
    0.7300   -4.9040   31.3110 C   0  0  0  0  0  0  0  0  0  0  0  0
    0.7790   -4.8010   32.7270 C   0  0  0  0  0  0  0  0  0  0  0  0
    0.1870   -4.6050   35.7290 C   0  0  0  0  0  0  0  0  0  0  0  0
    0.4480   -5.0840   37.1510 C   0  0  0  0  0  0  0  0  0  0  0  0
    1.5400   -6.1490   37.0270 C   0  0  1  0  0  0  0  0  0  0  0  0
    1.8410   -7.0700   38.1870 C   0  0  0  0  0  0  0  0  0  0  0  0
    0.9140   -7.2950   39.1950 C   0  0  0  0  0  0  0  0  0  0  0  0
    1.1670   -8.2160   40.1990 C   0  0  0  0  0  0  0  0  0  0  0  0
    2.3510   -8.9180   40.2120 C   0  0  0  0  0  0  0  0  0  0  0  0
    3.2870   -8.6990   39.2220 C   0  0  0  0  0  0  0  0  0  0  0  0
    3.0350   -7.7790   38.2170 C   0  0  0  0  0  0  0  0  0  0  0  0
  3  2  2  0
  2  1  2  0
  2 16  1  0
 16 17  1  1
 17 22  2  0
 22 21  1  0
 21 20  2  0
 20 19  1  0
 19 18  2  0
 18 17  1  0
 16 15  1  0
 15 14  1  0
 14  4  1  0
  4  2  1  0
  5  4  1  0
  5 13  2  0
 13 12  1  0
 12 11  2  0
 11 10  1  0
 10  9  2  0
  9  8  1  0
  8  7  2  0
  7  6  1  0
  6  5  1  0
 10  6  1  0
M  END
>  <id>  (145) 
145

>  <inchikey>  (145) 
YWAUSXIRKVBYLY-ZDUSSCGKSA-N

>  <alias>  (145) 
B0691b

>  <smiles>  (145) 
O=S1(=O)[C@H](c2ccccc2)CCN1c1cccc2nncn12

>  <path>  (145) 
/opt/xchem-fragalysis-2/maxwin/BulkDock/TARGETS/D68EV3C/aligned_files/B0691b/B0691b.pdb

>  <distance_score>  (145) 
None

>  <energy_score>  (145) 
None

>  <compound>  (145) 
YWAUSXIRKVBYLY-UHFFFAOYSA-N

>  <compound_id>  (145) 
117

>  <target>  (145) 
D68EV3C

>  <tags>  (145) 
['BAD count', '[Other] upload_1 2025-02-11', 'hits', 'MEDIOCRE count', 'Main status', 'GOOD count']

>  <inspirations>  (145) 
None

>  <subsites>  (145) 
None

>  <reference>  (145) 


>  <observation_longname>  (145) 
D68EV3CPROB-x0691_A_301_v1

>  <ConformerSites alias>  (145) 
11c - B0691/A/301

>  <CanonSites alias>  (145) 
11 - B0517/A/209/1

>  <CrystalformSites alias>  (145) 
F1ah - B0517/A/209

>  <Quatassemblies alias>  (145) 
A1 - monomer

>  <Crystalforms alias>  (145) 
F1 - D68_3C_PROB

>  <ConformerSites upload name>  (145) 
11c - D68EV3CPROB-x0691/A/301

>  <CanonSites upload name>  (145) 
11 - D68EV3CPROB-x0517/A/209/1

>  <CrystalformSites upload name>  (145) 
F1ah - D68EV3CPROB-x0517/A/209/1

>  <Quatassemblies upload name>  (145) 
A1 - monomer

>  <Crystalforms upload name>  (145) 
F1 - D68_3C_PROB

>  <ConformerSites short tag>  (145) 
11c - B0691/A/301

>  <CanonSites short tag>  (145) 
11 - B0517/A/209/1

>  <CrystalformSites short tag>  (145) 
F1ah - B0517/A/209

>  <Quatassemblies short tag>  (145) 
A1 - monomer

>  <Crystalforms short tag>  (145) 
F1 - D68_3C_PROB

>  <Centroid res>  (145) 
D68EV3CPROB-x0517/A/142/A_v1

>  <Experiment code>  (145) 
D68EV3CPROB-x0691

>  <Pose>  (145) 
B0691b

$$$$
B0693a
     RDKit          3D

 19 21  0  0  0  0  0  0  0  0999 V2000
   17.4940   -3.0830   17.8160 O   0  0  0  0  0  0  0  0  0  0  0  0
   17.3140   -2.0280   17.2140 C   0  0  0  0  0  0  0  0  0  0  0  0
   18.4550   -1.0550   16.9970 C   0  0  0  0  0  0  0  0  0  0  0  0
   19.0720   -1.2150   15.6030 C   0  0  0  0  0  0  0  0  0  0  0  0
   19.3110   -0.1810   14.7750 N   0  0  0  0  0  0  0  0  0  0  0  0
   19.8690   -0.6060   13.6070 N   0  0  0  0  0  0  0  0  0  0  0  0
   19.9730   -1.9230   13.7260 C   0  0  0  0  0  0  0  0  0  0  0  0
   19.4820   -2.3530   14.9560 C   0  0  0  0  0  0  0  0  0  0  0  0
   16.1210   -1.6420   16.6960 N   0  0  0  0  0  0  0  0  0  0  0  0
   14.9000   -2.3670   16.6170 C   0  0  0  0  0  0  0  0  0  0  0  0
   14.0730   -2.1740   15.4900 C   0  0  0  0  0  0  0  0  0  0  0  0
   14.5210   -1.2830   14.3520 C   0  0  0  0  0  0  0  0  0  0  0  0
   13.6630   -1.4840   13.1250 C   0  0  0  0  0  0  0  0  0  0  0  0
   12.2360   -1.4840   13.4620 N   0  0  0  0  0  0  0  0  0  0  0  0
   11.9040   -2.6540   14.2750 C   0  0  0  0  0  0  0  0  0  0  0  0
   12.8300   -2.8240   15.4520 C   0  0  0  0  0  0  0  0  0  0  0  0
   12.4430   -3.6380   16.5140 C   0  0  0  0  0  0  0  0  0  0  0  0
   13.2710   -3.8260   17.6050 C   0  0  0  0  0  0  0  0  0  0  0  0
   14.5030   -3.1980   17.6640 C   0  0  0  0  0  0  0  0  0  0  0  0
  2  1  2  0
  3  2  1  0
  4  3  1  0
  4  8  2  0
  8  7  1  0
  7  6  2  0
  6  5  1  0
  5  4  1  0
  9  2  1  0
 10  9  1  0
 10 19  1  0
 19 18  2  0
 18 17  1  0
 17 16  2  0
 16 11  1  0
 11 10  2  0
 12 11  1  0
 13 12  1  0
 14 13  1  0
 15 14  1  0
 16 15  1  0
M  END
>  <id>  (146) 
146

>  <inchikey>  (146) 
XMHWMSYQYNZKGG-UHFFFAOYSA-N

>  <alias>  (146) 
B0693a

>  <smiles>  (146) 
O=C(Cc1ccn[nH]1)Nc1cccc2c1CCNC2

>  <path>  (146) 
/opt/xchem-fragalysis-2/maxwin/BulkDock/TARGETS/D68EV3C/aligned_files/B0693a/B0693a.pdb

>  <distance_score>  (146) 
None

>  <energy_score>  (146) 
None

>  <compound>  (146) 
XMHWMSYQYNZKGG-UHFFFAOYSA-N

>  <compound_id>  (146) 
118

>  <target>  (146) 
D68EV3C

>  <tags>  (146) 
['BAD count', '[Other] upload_1 2025-02-11', 'hits', 'MEDIOCRE count', 'Main status', 'GOOD count']

>  <inspirations>  (146) 
None

>  <subsites>  (146) 
None

>  <reference>  (146) 


>  <observation_longname>  (146) 
D68EV3CPROB-x0693_A_209_v1

>  <ConformerSites alias>  (146) 
2a - 7gon/B/201

>  <CanonSites alias>  (146) 
2 - 7gon/B/201/1

>  <CrystalformSites alias>  (146) 
F1k - 0693/A/209

>  <Quatassemblies alias>  (146) 
A1 - monomer

>  <Crystalforms alias>  (146) 
F1 - D68_3C_PROB

>  <ConformerSites upload name>  (146) 
2a - 7gon/B/201

>  <CanonSites upload name>  (146) 
2 - 7gon/B/201/1

>  <CrystalformSites upload name>  (146) 
F1k - D68EV3CPROB-x0693/A/209/1

>  <Quatassemblies upload name>  (146) 
A1 - monomer

>  <Crystalforms upload name>  (146) 
F1 - D68_3C_PROB

>  <ConformerSites short tag>  (146) 
2a - 7gon/B/201

>  <CanonSites short tag>  (146) 
2 - 7gon/B/201/1

>  <CrystalformSites short tag>  (146) 
F1k - 0693/A/209

>  <Quatassemblies short tag>  (146) 
A1 - monomer

>  <Crystalforms short tag>  (146) 
F1 - D68_3C_PROB

>  <Centroid res>  (146) 
7gon/B/47/B_v1

>  <Experiment code>  (146) 
D68EV3CPROB-x0693

>  <Pose>  (146) 
B0693a

$$$$
B0723a
     RDKit          3D

 23 26  0  0  0  0  0  0  0  0999 V2000
   -0.5760    3.3830   27.4750 C   0  0  0  0  0  0  0  0  0  0  0  0
   -1.6700    3.6290   26.6710 C   0  0  0  0  0  0  0  0  0  0  0  0
   -0.3360    2.1050   27.9570 C   0  0  0  0  0  0  0  0  0  0  0  0
   -1.1960    1.0560   27.6360 C   0  0  0  0  0  0  0  0  0  0  0  0
   -2.2980    1.3180   26.8230 C   0  0  0  0  0  0  0  0  0  0  0  0
   -2.5350    2.5990   26.3530 C   0  0  0  0  0  0  0  0  0  0  0  0
   -0.9960   -0.2950   28.1940 C   0  0  0  0  0  0  0  0  0  0  0  0
    0.1960   -0.8140   28.6280 N   0  0  0  0  0  0  0  0  0  0  0  0
    0.0660   -2.1540   28.8290 C   0  0  0  0  0  0  0  0  0  0  0  0
   -1.1810   -2.4710   28.5090 N   0  0  0  0  0  0  0  0  0  0  0  0
   -1.8400   -1.3080   28.1090 N   0  0  0  0  0  0  0  0  0  0  0  0
    1.0920   -3.1420   29.3600 C   0  0  0  0  0  0  0  0  0  0  0  0
    0.3930   -4.0420   30.3020 N   0  0  0  0  0  0  0  0  0  0  0  0
    1.2550   -4.9300   31.0930 C   0  0  0  0  0  0  0  0  0  0  0  0
    0.5310   -5.6110   32.2120 C   0  0  0  0  0  0  0  0  0  0  0  0
   -0.3630   -6.6580   31.9050 N   0  0  0  0  0  0  0  0  0  0  0  0
   -0.7490   -7.2230   30.7210 C   0  0  0  0  0  0  0  0  0  0  0  0
   -1.5790   -8.2070   30.9230 N   0  0  0  0  0  0  0  0  0  0  0  0
   -1.7730   -8.3220   32.2980 N   0  0  0  0  0  0  0  0  0  0  0  0
   -1.0260   -7.3900   32.8840 C   0  0  0  0  0  0  0  0  0  0  0  0
   -0.7780   -7.0730   34.2440 C   0  0  0  0  0  0  0  0  0  0  0  0
    0.0940   -6.0600   34.5500 C   0  0  0  0  0  0  0  0  0  0  0  0
    0.7430   -5.3220   33.5250 C   0  0  0  0  0  0  0  0  0  0  0  0
  2  6  2  0
  6  5  1  0
  5  4  2  0
  7  4  1  0
  7 11  2  0
 11 10  1  0
 10  9  2  0
 12  9  1  0
 13 12  1  0
 14 13  1  0
 15 14  1  0
 15 23  2  0
 23 22  1  0
 22 21  2  0
 21 20  1  0
 20 19  2  0
 19 18  1  0
 18 17  2  0
 17 16  1  0
 16 15  1  0
 20 16  1  0
  9  8  1  0
  8  7  1  0
  4  3  1  0
  3  1  2  0
  2  1  1  0
M  END
>  <id>  (147) 
147

>  <inchikey>  (147) 
XEHZOMCBCLBNAD-UHFFFAOYSA-N

>  <alias>  (147) 
B0723a

>  <smiles>  (147) 
c1ccc(-c2nnc(CNCc3cccc4nncn34)[nH]2)cc1

>  <path>  (147) 
/opt/xchem-fragalysis-2/maxwin/BulkDock/TARGETS/D68EV3C/aligned_files/B0723a/B0723a.pdb

>  <distance_score>  (147) 
None

>  <energy_score>  (147) 
None

>  <compound>  (147) 
XEHZOMCBCLBNAD-UHFFFAOYSA-N

>  <compound_id>  (147) 
119

>  <target>  (147) 
D68EV3C

>  <tags>  (147) 
['BAD count', '[Other] upload_1 2025-02-11', '[Other] iter1_frags', 'hits', 'MEDIOCRE count', 'Main status', 'GOOD count']

>  <inspirations>  (147) 
None

>  <subsites>  (147) 
None

>  <reference>  (147) 


>  <observation_longname>  (147) 
D68EV3CPROB-x0723_A_401_v1

>  <ConformerSites alias>  (147) 
1a - 7gp9/A/201

>  <CanonSites alias>  (147) 
1 - 7gp9/A/201/1

>  <CrystalformSites alias>  (147) 
F1f - 0446/A/209

>  <Quatassemblies alias>  (147) 
A1 - monomer

>  <Crystalforms alias>  (147) 
F1 - D68_3C_PROB

>  <ConformerSites upload name>  (147) 
1a - 7gp9/A/201

>  <CanonSites upload name>  (147) 
1 - 7gp9/A/201/1

>  <CrystalformSites upload name>  (147) 
F1f - D68EV3CPROB-x0446/A/209/1

>  <Quatassemblies upload name>  (147) 
A1 - monomer

>  <Crystalforms upload name>  (147) 
F1 - D68_3C_PROB

>  <ConformerSites short tag>  (147) 
1a - 7gp9/A/201

>  <CanonSites short tag>  (147) 
1 - 7gp9/A/201/1

>  <CrystalformSites short tag>  (147) 
F1f - 0446/A/209

>  <Quatassemblies short tag>  (147) 
A1 - monomer

>  <Crystalforms short tag>  (147) 
F1 - D68_3C_PROB

>  <Centroid res>  (147) 
7gp9/A/163/A_v1

>  <Experiment code>  (147) 
D68EV3CPROB-x0723

>  <Pose>  (147) 
B0723a

$$$$
B0738a
     RDKit          3D

 20 23  0  0  0  0  0  0  0  0999 V2000
    4.1120   -8.8390   38.4740 C   0  0  0  0  0  0  0  0  0  0  0  0
    5.0820   -9.7550   38.9290 C   0  0  0  0  0  0  0  0  0  0  0  0
    4.1590   -8.8360   37.0830 C   0  0  0  0  0  0  0  0  0  0  0  0
    5.1460   -9.7160   36.7120 N   0  0  0  0  0  0  0  0  0  0  0  0
    5.7020  -10.2780   37.8250 C   0  0  0  0  0  0  0  0  0  0  0  0
    3.3220   -8.1590   36.1530 C   0  0  0  0  0  0  0  0  0  0  0  0
    2.3260   -7.3770   36.6780 O   0  0  0  0  0  0  0  0  0  0  0  0
    1.6840   -6.9580   35.5550 C   0  0  0  0  0  0  0  0  0  0  0  0
    2.2080   -7.4170   34.4740 N   0  0  0  0  0  0  0  0  0  0  0  0
    3.2940   -8.2030   34.8670 N   0  0  0  0  0  0  0  0  0  0  0  0
    0.3100   -5.8750   35.5970 S   0  0  0  0  0  0  0  0  0  0  0  0
    0.2650   -5.7560   33.8330 C   0  0  0  0  0  0  0  0  0  0  0  0
   -0.4510   -6.7130   33.0920 N   0  0  0  0  0  0  0  0  0  0  0  0
   -1.3210   -7.7070   33.4480 C   0  0  0  0  0  0  0  0  0  0  0  0
   -1.7730   -8.3330   32.3950 N   0  0  0  0  0  0  0  0  0  0  0  0
   -1.1830   -7.7480   31.2710 N   0  0  0  0  0  0  0  0  0  0  0  0
   -0.3950   -6.7660   31.7000 C   0  0  0  0  0  0  0  0  0  0  0  0
    0.3980   -5.8040   31.0250 C   0  0  0  0  0  0  0  0  0  0  0  0
    1.0650   -4.8500   31.7500 C   0  0  0  0  0  0  0  0  0  0  0  0
    0.9950   -4.8230   33.1710 C   0  0  0  0  0  0  0  0  0  0  0  0
  2  5  2  0
  5  4  1  0
  4  3  1  0
  6  3  1  0
  6 10  2  0
 10  9  1  0
  9  8  2  0
 11  8  1  0
 12 11  1  0
 12 20  2  0
 20 19  1  0
 19 18  2  0
 18 17  1  0
 17 16  2  0
 16 15  1  0
 15 14  2  0
 14 13  1  0
 13 12  1  0
 17 13  1  0
  8  7  1  0
  7  6  1  0
  3  1  2  0
  2  1  1  0
M  END
>  <id>  (148) 
148

>  <inchikey>  (148) 
LJMUUEZBPOHHNK-UHFFFAOYSA-N

>  <alias>  (148) 
B0738a

>  <smiles>  (148) 
c1c[nH]c(-c2nnc(Sc3cccc4nncn34)o2)c1

>  <path>  (148) 
/opt/xchem-fragalysis-2/maxwin/BulkDock/TARGETS/D68EV3C/aligned_files/B0738a/B0738a.pdb

>  <distance_score>  (148) 
None

>  <energy_score>  (148) 
None

>  <compound>  (148) 
LJMUUEZBPOHHNK-UHFFFAOYSA-N

>  <compound_id>  (148) 
120

>  <target>  (148) 
D68EV3C

>  <tags>  (148) 
['BAD count', '[Other] upload_1 2025-02-11', '[Other] iter1_frags', 'hits', 'MEDIOCRE count', 'Main status', 'GOOD count']

>  <inspirations>  (148) 
None

>  <subsites>  (148) 
None

>  <reference>  (148) 


>  <observation_longname>  (148) 
D68EV3CPROB-x0738_A_308_v1

>  <ConformerSites alias>  (148) 
1a - 7gp9/A/201

>  <CanonSites alias>  (148) 
1 - 7gp9/A/201/1

>  <CrystalformSites alias>  (148) 
F1f - 0446/A/209

>  <Quatassemblies alias>  (148) 
A1 - monomer

>  <Crystalforms alias>  (148) 
F1 - D68_3C_PROB

>  <ConformerSites upload name>  (148) 
1a - 7gp9/A/201

>  <CanonSites upload name>  (148) 
1 - 7gp9/A/201/1

>  <CrystalformSites upload name>  (148) 
F1f - D68EV3CPROB-x0446/A/209/1

>  <Quatassemblies upload name>  (148) 
A1 - monomer

>  <Crystalforms upload name>  (148) 
F1 - D68_3C_PROB

>  <ConformerSites short tag>  (148) 
1a - 7gp9/A/201

>  <CanonSites short tag>  (148) 
1 - 7gp9/A/201/1

>  <CrystalformSites short tag>  (148) 
F1f - 0446/A/209

>  <Quatassemblies short tag>  (148) 
A1 - monomer

>  <Crystalforms short tag>  (148) 
F1 - D68_3C_PROB

>  <Centroid res>  (148) 
7gp9/A/163/A_v1

>  <Experiment code>  (148) 
D68EV3CPROB-x0738

>  <Pose>  (148) 
B0738a

$$$$
B0738b
     RDKit          3D

 20 23  0  0  0  0  0  0  0  0999 V2000
    3.9080   -7.9920   38.2630 C   0  0  0  0  0  0  0  0  0  0  0  0
    4.9990   -8.6950   38.7480 C   0  0  0  0  0  0  0  0  0  0  0  0
    3.8160   -8.2500   36.9020 C   0  0  0  0  0  0  0  0  0  0  0  0
    4.8440   -9.0930   36.5760 N   0  0  0  0  0  0  0  0  0  0  0  0
    5.5600   -9.3720   37.6880 C   0  0  0  0  0  0  0  0  0  0  0  0
    2.9340   -7.8100   36.0230 C   0  0  0  0  0  0  0  0  0  0  0  0
    1.9740   -6.9710   36.4960 O   0  0  0  0  0  0  0  0  0  0  0  0
    1.2680   -6.7060   35.3700 C   0  0  0  0  0  0  0  0  0  0  0  0
    1.7280   -7.3110   34.3320 N   0  0  0  0  0  0  0  0  0  0  0  0
    2.8280   -8.0370   34.7630 N   0  0  0  0  0  0  0  0  0  0  0  0
   -0.0700   -5.6440   35.3280 S   0  0  0  0  0  0  0  0  0  0  0  0
    0.0110   -5.8040   33.5900 C   0  0  0  0  0  0  0  0  0  0  0  0
   -0.7510   -6.8030   32.9770 N   0  0  0  0  0  0  0  0  0  0  0  0
   -1.6380   -7.7250   33.4510 C   0  0  0  0  0  0  0  0  0  0  0  0
   -2.0950   -8.4710   32.4830 N   0  0  0  0  0  0  0  0  0  0  0  0
   -1.4990   -8.0380   31.2980 N   0  0  0  0  0  0  0  0  0  0  0  0
   -0.6860   -7.0370   31.6050 C   0  0  0  0  0  0  0  0  0  0  0  0
    0.1920   -6.2360   30.8280 C   0  0  0  0  0  0  0  0  0  0  0  0
    0.9310   -5.2630   31.4360 C   0  0  0  0  0  0  0  0  0  0  0  0
    0.8340   -5.0370   32.8320 C   0  0  0  0  0  0  0  0  0  0  0  0
  2  5  2  0
  5  4  1  0
  4  3  1  0
  6  3  1  0
  6 10  2  0
 10  9  1  0
  9  8  2  0
 11  8  1  0
 12 11  1  0
 12 20  2  0
 20 19  1  0
 19 18  2  0
 18 17  1  0
 17 16  2  0
 16 15  1  0
 15 14  2  0
 14 13  1  0
 13 12  1  0
 17 13  1  0
  8  7  1  0
  7  6  1  0
  3  1  2  0
  2  1  1  0
M  END
>  <id>  (149) 
149

>  <inchikey>  (149) 
LJMUUEZBPOHHNK-UHFFFAOYSA-N

>  <alias>  (149) 
B0738b

>  <smiles>  (149) 
c1c[nH]c(-c2nnc(Sc3cccc4nncn34)o2)c1

>  <path>  (149) 
/opt/xchem-fragalysis-2/maxwin/BulkDock/TARGETS/D68EV3C/aligned_files/B0738b/B0738b.pdb

>  <distance_score>  (149) 
None

>  <energy_score>  (149) 
None

>  <compound>  (149) 
LJMUUEZBPOHHNK-UHFFFAOYSA-N

>  <compound_id>  (149) 
120

>  <target>  (149) 
D68EV3C

>  <tags>  (149) 
['BAD count', '[Other] upload_1 2025-02-11', 'hits', 'MEDIOCRE count', 'Main status', 'GOOD count']

>  <inspirations>  (149) 
None

>  <subsites>  (149) 
None

>  <reference>  (149) 


>  <observation_longname>  (149) 
D68EV3CPROB-x0738_B_207_v1

>  <ConformerSites alias>  (149) 
1a - 7gp9/A/201

>  <CanonSites alias>  (149) 
1 - 7gp9/A/201/1

>  <CrystalformSites alias>  (149) 
F1e - 0436/B/301

>  <Quatassemblies alias>  (149) 
A1 - monomer

>  <Crystalforms alias>  (149) 
F1 - D68_3C_PROB

>  <ConformerSites upload name>  (149) 
1a - 7gp9/A/201

>  <CanonSites upload name>  (149) 
1 - 7gp9/A/201/1

>  <CrystalformSites upload name>  (149) 
F1e - D68EV3CPROB-x0436/B/301/1

>  <Quatassemblies upload name>  (149) 
A1 - monomer

>  <Crystalforms upload name>  (149) 
F1 - D68_3C_PROB

>  <ConformerSites short tag>  (149) 
1a - 7gp9/A/201

>  <CanonSites short tag>  (149) 
1 - 7gp9/A/201/1

>  <CrystalformSites short tag>  (149) 
F1e - 0436/B/301

>  <Quatassemblies short tag>  (149) 
A1 - monomer

>  <Crystalforms short tag>  (149) 
F1 - D68_3C_PROB

>  <Centroid res>  (149) 
7gp9/A/163/A_v1

>  <Experiment code>  (149) 
D68EV3CPROB-x0738

>  <Pose>  (149) 
B0738a

$$$$
B0742a
     RDKit          3D

 21 24  0  0  0  0  0  0  0  0999 V2000
   -1.7590   -6.0370   41.1640 C   0  0  0  0  0  0  0  0  0  0  0  0
   -1.0630   -7.1140   41.6710 C   0  0  0  0  0  0  0  0  0  0  0  0
   -1.5930   -5.6560   39.8390 C   0  0  0  0  0  0  0  0  0  0  0  0
   -0.7310   -6.3620   39.0060 C   0  0  0  0  0  0  0  0  0  0  0  0
   -0.0240   -7.4410   39.5330 C   0  0  0  0  0  0  0  0  0  0  0  0
   -0.1930   -7.8100   40.8580 C   0  0  0  0  0  0  0  0  0  0  0  0
   -0.6160   -6.0220   37.5750 C   0  0  0  0  0  0  0  0  0  0  0  0
    0.3190   -6.5670   36.7340 N   0  0  0  0  0  0  0  0  0  0  0  0
    0.0160   -6.0940   35.5100 C   0  0  0  0  0  0  0  0  0  0  0  0
   -1.0230   -5.2780   35.5590 N   0  0  0  0  0  0  0  0  0  0  0  0
   -1.4300   -5.2280   36.8940 N   0  0  0  0  0  0  0  0  0  0  0  0
    0.7350   -6.4710   34.4190 N   0  0  0  0  0  0  0  0  0  0  0  0
    0.4600   -6.0450   33.1220 C   0  0  0  0  0  0  0  0  0  0  0  0
   -0.4440   -6.8590   32.4600 N   0  0  0  0  0  0  0  0  0  0  0  0
   -1.2640   -7.8670   32.8800 C   0  0  0  0  0  0  0  0  0  0  0  0
   -1.9410   -8.3620   31.8840 N   0  0  0  0  0  0  0  0  0  0  0  0
   -1.5750   -7.6570   30.7370 N   0  0  0  0  0  0  0  0  0  0  0  0
   -0.6760   -6.7470   31.0970 C   0  0  0  0  0  0  0  0  0  0  0  0
    0.0190   -5.7430   30.3810 C   0  0  0  0  0  0  0  0  0  0  0  0
    0.8810   -4.9090   31.0380 C   0  0  0  0  0  0  0  0  0  0  0  0
    1.1110   -5.0390   32.4230 C   0  0  0  0  0  0  0  0  0  0  0  0
  2  6  2  0
  6  5  1  0
  5  4  2  0
  7  4  1  0
  7 11  2  0
 11 10  1  0
 10  9  2  0
 12  9  1  0
 13 12  1  0
 13 21  2  0
 21 20  1  0
 20 19  2  0
 19 18  1  0
 18 17  2  0
 17 16  1  0
 16 15  2  0
 15 14  1  0
 14 13  1  0
 18 14  1  0
  9  8  1  0
  8  7  1  0
  4  3  1  0
  3  1  2  0
  2  1  1  0
M  END
>  <id>  (150) 
150

>  <inchikey>  (150) 
DNEHZXPFMONSEW-UHFFFAOYSA-N

>  <alias>  (150) 
B0742a

>  <smiles>  (150) 
c1ccc(-c2nnc(Nc3cccc4nncn34)[nH]2)cc1

>  <path>  (150) 
/opt/xchem-fragalysis-2/maxwin/BulkDock/TARGETS/D68EV3C/aligned_files/B0742a/B0742a.pdb

>  <distance_score>  (150) 
None

>  <energy_score>  (150) 
None

>  <compound>  (150) 
DNEHZXPFMONSEW-UHFFFAOYSA-N

>  <compound_id>  (150) 
121

>  <target>  (150) 
D68EV3C

>  <tags>  (150) 
['BAD count', '[Other] upload_1 2025-02-11', '[Other] iter1_frags', 'hits', 'MEDIOCRE count', 'Main status', 'GOOD count']

>  <inspirations>  (150) 
None

>  <subsites>  (150) 
None

>  <reference>  (150) 


>  <observation_longname>  (150) 
D68EV3CPROB-x0742_A_308_v1

>  <ConformerSites alias>  (150) 
1a - 7gp9/A/201

>  <CanonSites alias>  (150) 
1 - 7gp9/A/201/1

>  <CrystalformSites alias>  (150) 
F1e - 0436/B/301

>  <Quatassemblies alias>  (150) 
A1 - monomer

>  <Crystalforms alias>  (150) 
F1 - D68_3C_PROB

>  <ConformerSites upload name>  (150) 
1a - 7gp9/A/201

>  <CanonSites upload name>  (150) 
1 - 7gp9/A/201/1

>  <CrystalformSites upload name>  (150) 
F1e - D68EV3CPROB-x0436/B/301/1

>  <Quatassemblies upload name>  (150) 
A1 - monomer

>  <Crystalforms upload name>  (150) 
F1 - D68_3C_PROB

>  <ConformerSites short tag>  (150) 
1a - 7gp9/A/201

>  <CanonSites short tag>  (150) 
1 - 7gp9/A/201/1

>  <CrystalformSites short tag>  (150) 
F1e - 0436/B/301

>  <Quatassemblies short tag>  (150) 
A1 - monomer

>  <Crystalforms short tag>  (150) 
F1 - D68_3C_PROB

>  <Centroid res>  (150) 
7gp9/A/163/A_v1

>  <Experiment code>  (150) 
D68EV3CPROB-x0742

>  <Pose>  (150) 
B0742a

$$$$
B0798a
     RDKit          3D

 19 21  0  0  0  0  0  0  0  0999 V2000
  -23.4000   -0.6260   15.8170 O   0  0  0  0  0  0  0  0  0  0  0  0
  -23.7130   -1.5850   16.5000 C   0  0  0  0  0  0  0  0  0  0  0  0
  -25.0450   -2.2000   16.4950 C   0  0  0  0  0  0  0  0  0  0  0  0
  -26.0580   -1.7140   15.6670 C   0  0  0  0  0  0  0  0  0  0  0  0
  -27.2860   -2.3570   15.6300 C   0  0  0  0  0  0  0  0  0  0  0  0
  -27.5160   -3.4700   16.4110 C   0  0  0  0  0  0  0  0  0  0  0  0
  -26.5340   -3.9510   17.2630 C   0  0  0  0  0  0  0  0  0  0  0  0
  -25.2930   -3.3220   17.3060 C   0  0  0  0  0  0  0  0  0  0  0  0
  -24.2720   -3.8160   18.1070 N   0  0  0  0  0  0  0  0  0  0  0  0
  -22.7770   -2.1900   17.3490 N   0  0  0  0  0  0  0  0  0  0  0  0
  -23.0200   -3.2900   18.1640 C   0  0  0  0  0  0  0  0  0  0  0  0
  -22.1580   -3.7780   18.8820 O   0  0  0  0  0  0  0  0  0  0  0  0
  -21.4140   -1.6360   17.3580 C   0  0  0  0  0  0  0  0  0  0  0  0
  -20.6000   -1.9930   16.1350 C   0  0  0  0  0  0  0  0  0  0  0  0
  -19.7010   -1.0890   15.6020 C   0  0  0  0  0  0  0  0  0  0  0  0
  -18.9500   -1.4510   14.5010 C   0  0  0  0  0  0  0  0  0  0  0  0
  -19.0390   -2.6440   13.9020 N   0  0  0  0  0  0  0  0  0  0  0  0
  -19.9150   -3.5110   14.4210 C   0  0  0  0  0  0  0  0  0  0  0  0
  -20.7070   -3.2320   15.5210 C   0  0  0  0  0  0  0  0  0  0  0  0
 12 11  2  0
 11  9  1  0
  9  8  1  0
  8  7  2  0
  7  6  1  0
  6  5  2  0
  5  4  1  0
  4  3  2  0
  8  3  1  0
  3  2  1  0
  2  1  2  0
 10  2  1  0
 11 10  1  0
 13 10  1  0
 14 13  1  0
 14 19  2  0
 19 18  1  0
 18 17  2  0
 17 16  1  0
 16 15  2  0
 15 14  1  0
M  END
>  <id>  (151) 
151

>  <inchikey>  (151) 
WUECBLFZRORSQU-UHFFFAOYSA-N

>  <alias>  (151) 
B0798a

>  <smiles>  (151) 
O=c1[nH]c2ccccc2c(=O)n1Cc1ccncc1

>  <path>  (151) 
/opt/xchem-fragalysis-2/maxwin/BulkDock/TARGETS/D68EV3C/aligned_files/B0798a/B0798a.pdb

>  <distance_score>  (151) 
None

>  <energy_score>  (151) 
None

>  <compound>  (151) 
WUECBLFZRORSQU-UHFFFAOYSA-N

>  <compound_id>  (151) 
122

>  <target>  (151) 
D68EV3C

>  <tags>  (151) 
['BAD count', '[Other] upload_1 2025-02-11', 'hits', 'MEDIOCRE count', 'Main status', 'GOOD count']

>  <inspirations>  (151) 
None

>  <subsites>  (151) 
None

>  <reference>  (151) 


>  <observation_longname>  (151) 
D68EV3CPROB-x0798_A_308_v1

>  <ConformerSites alias>  (151) 
6a - B0798/A/308

>  <CanonSites alias>  (151) 
6 - B0798/A/308/1

>  <CrystalformSites alias>  (151) 
F1v - B0469/A/209

>  <Quatassemblies alias>  (151) 
A1 - monomer

>  <Crystalforms alias>  (151) 
F1 - D68_3C_PROB

>  <ConformerSites upload name>  (151) 
6a - D68EV3CPROB-x0798/A/308

>  <CanonSites upload name>  (151) 
6 - D68EV3CPROB-x0798/A/308/1

>  <CrystalformSites upload name>  (151) 
F1v - D68EV3CPROB-x0469/A/209/1

>  <Quatassemblies upload name>  (151) 
A1 - monomer

>  <Crystalforms upload name>  (151) 
F1 - D68_3C_PROB

>  <ConformerSites short tag>  (151) 
6a - B0798/A/308

>  <CanonSites short tag>  (151) 
6 - B0798/A/308/1

>  <CrystalformSites short tag>  (151) 
F1v - B0469/A/209

>  <Quatassemblies short tag>  (151) 
A1 - monomer

>  <Crystalforms short tag>  (151) 
F1 - D68_3C_PROB

>  <Centroid res>  (151) 
D68EV3CPROB-x0798/A/175/A_v1

>  <Experiment code>  (151) 
D68EV3CPROB-x0798

>  <Pose>  (151) 
B0798a

$$$$
B0805a
     RDKit          3D

 23 26  0  0  0  0  0  0  0  0999 V2000
   -0.1940   -7.7970   36.4630 O   0  0  0  0  0  0  0  0  0  0  0  0
    0.9180   -7.1310   35.8520 S   0  0  0  0  0  0  0  0  0  0  0  0
    1.8360   -7.9180   35.0820 O   0  0  0  0  0  0  0  0  0  0  0  0
    0.3130   -5.9250   34.9060 N   0  0  0  0  0  0  0  0  0  0  0  0
    0.2210   -5.8950   33.5010 C   0  0  0  0  0  0  0  0  0  0  0  0
   -0.6450   -6.8080   32.8890 N   0  0  0  0  0  0  0  0  0  0  0  0
   -1.5210   -7.7320   33.3870 C   0  0  0  0  0  0  0  0  0  0  0  0
   -2.1020   -8.3910   32.4210 N   0  0  0  0  0  0  0  0  0  0  0  0
   -1.6050   -7.8950   31.2150 N   0  0  0  0  0  0  0  0  0  0  0  0
   -0.7340   -6.9350   31.5080 C   0  0  0  0  0  0  0  0  0  0  0  0
    0.0680   -6.0860   30.7040 C   0  0  0  0  0  0  0  0  0  0  0  0
    0.8940   -5.1740   31.2930 C   0  0  0  0  0  0  0  0  0  0  0  0
    0.9860   -5.0630   32.7010 C   0  0  0  0  0  0  0  0  0  0  0  0
   -0.2880   -4.7850   35.6450 C   0  0  0  0  0  0  0  0  0  0  0  0
    0.6470   -4.1780   36.6590 C   0  0  0  0  0  0  0  0  0  0  0  0
    1.0000   -5.1980   37.7330 C   0  0  0  0  0  0  0  0  0  0  0  0
    1.8550   -6.3150   37.1350 C   0  0  1  0  0  0  0  0  0  0  0  0
    2.3290   -7.3490   38.1320 C   0  0  0  0  0  0  0  0  0  0  0  0
    1.4390   -7.9880   38.9850 C   0  0  0  0  0  0  0  0  0  0  0  0
    1.8720   -8.9950   39.8350 C   0  0  0  0  0  0  0  0  0  0  0  0
    3.1970   -9.3630   39.8530 C   0  0  0  0  0  0  0  0  0  0  0  0
    4.0920   -8.7310   39.0190 C   0  0  0  0  0  0  0  0  0  0  0  0
    3.6630   -7.7250   38.1670 C   0  0  0  0  0  0  0  0  0  0  0  0
  3  2  2  0
  2  1  2  0
  2 17  1  0
 17 18  1  1
 18 23  2  0
 23 22  1  0
 22 21  2  0
 21 20  1  0
 20 19  2  0
 19 18  1  0
 17 16  1  0
 16 15  1  0
 15 14  1  0
 14  4  1  0
  4  2  1  0
  5  4  1  0
  5 13  2  0
 13 12  1  0
 12 11  2  0
 11 10  1  0
 10  9  2  0
  9  8  1  0
  8  7  2  0
  7  6  1  0
  6  5  1  0
 10  6  1  0
M  END
>  <id>  (152) 
152

>  <inchikey>  (152) 
DPLORBPGZRNKJU-AWEZNQCLSA-N

>  <alias>  (152) 
B0805a

>  <smiles>  (152) 
O=S1(=O)[C@H](c2ccccc2)CCCN1c1cccc2nncn12

>  <path>  (152) 
/opt/xchem-fragalysis-2/maxwin/BulkDock/TARGETS/D68EV3C/aligned_files/B0805a/B0805a.pdb

>  <distance_score>  (152) 
None

>  <energy_score>  (152) 
None

>  <compound>  (152) 
DPLORBPGZRNKJU-UHFFFAOYSA-N

>  <compound_id>  (152) 
123

>  <target>  (152) 
D68EV3C

>  <tags>  (152) 
['BAD count', '[Other] upload_1 2025-02-11', '[Other] iter1_frags', 'hits', 'MEDIOCRE count', 'Main status', 'GOOD count']

>  <inspirations>  (152) 
None

>  <subsites>  (152) 
None

>  <reference>  (152) 


>  <observation_longname>  (152) 
D68EV3CPROB-x0805_A_301_v1

>  <ConformerSites alias>  (152) 
1a - 7gp9/A/201

>  <CanonSites alias>  (152) 
1 - 7gp9/A/201/1

>  <CrystalformSites alias>  (152) 
F1f - 0446/A/209

>  <Quatassemblies alias>  (152) 
A1 - monomer

>  <Crystalforms alias>  (152) 
F1 - D68_3C_PROB

>  <ConformerSites upload name>  (152) 
1a - 7gp9/A/201

>  <CanonSites upload name>  (152) 
1 - 7gp9/A/201/1

>  <CrystalformSites upload name>  (152) 
F1f - D68EV3CPROB-x0446/A/209/1

>  <Quatassemblies upload name>  (152) 
A1 - monomer

>  <Crystalforms upload name>  (152) 
F1 - D68_3C_PROB

>  <ConformerSites short tag>  (152) 
1a - 7gp9/A/201

>  <CanonSites short tag>  (152) 
1 - 7gp9/A/201/1

>  <CrystalformSites short tag>  (152) 
F1f - 0446/A/209

>  <Quatassemblies short tag>  (152) 
A1 - monomer

>  <Crystalforms short tag>  (152) 
F1 - D68_3C_PROB

>  <Centroid res>  (152) 
7gp9/A/163/A_v1

>  <Experiment code>  (152) 
D68EV3CPROB-x0805

>  <Pose>  (152) 
B0805a

$$$$
B0805b
     RDKit          3D

 23 26  0  0  0  0  0  0  0  0999 V2000
   -0.7120   -7.2680   36.4320 O   0  0  0  0  0  0  0  0  0  0  0  0
    0.5190   -6.8160   35.8600 S   0  0  0  0  0  0  0  0  0  0  0  0
    1.3970   -7.7870   35.2780 O   0  0  0  0  0  0  0  0  0  0  0  0
    0.1370   -5.7240   34.7050 N   0  0  0  0  0  0  0  0  0  0  0  0
    0.2560   -5.9220   33.3370 C   0  0  0  0  0  0  0  0  0  0  0  0
   -0.5910   -6.8520   32.7630 N   0  0  0  0  0  0  0  0  0  0  0  0
   -1.5150   -7.7110   33.2820 C   0  0  0  0  0  0  0  0  0  0  0  0
   -2.0540   -8.4330   32.3440 N   0  0  0  0  0  0  0  0  0  0  0  0
   -1.4830   -8.0420   31.1340 N   0  0  0  0  0  0  0  0  0  0  0  0
   -0.5970   -7.0980   31.3980 C   0  0  0  0  0  0  0  0  0  0  0  0
    0.3140   -6.3860   30.5890 C   0  0  0  0  0  0  0  0  0  0  0  0
    1.1610   -5.4730   31.1550 C   0  0  0  0  0  0  0  0  0  0  0  0
    1.1420   -5.2200   32.5500 C   0  0  0  0  0  0  0  0  0  0  0  0
   -0.3950   -4.4190   35.1830 C   0  0  0  0  0  0  0  0  0  0  0  0
   -0.5250   -4.3160   36.6860 C   0  0  0  0  0  0  0  0  0  0  0  0
    0.8300   -4.5060   37.3600 C   0  0  0  0  0  0  0  0  0  0  0  0
    1.4420   -5.8860   37.0810 C   0  0  1  0  0  0  0  0  0  0  0  0
    1.5860   -6.7470   38.3160 C   0  0  0  0  0  0  0  0  0  0  0  0
    2.7510   -7.4710   38.5360 C   0  0  0  0  0  0  0  0  0  0  0  0
    2.8770   -8.2870   39.6520 C   0  0  0  0  0  0  0  0  0  0  0  0
    1.8450   -8.3850   40.5620 C   0  0  0  0  0  0  0  0  0  0  0  0
    0.6840   -7.6640   40.3600 C   0  0  0  0  0  0  0  0  0  0  0  0
    0.5550   -6.8510   39.2420 C   0  0  0  0  0  0  0  0  0  0  0  0
  3  2  2  0
  2  1  2  0
  2 17  1  0
 17 18  1  1
 18 23  2  0
 23 22  1  0
 22 21  2  0
 21 20  1  0
 20 19  2  0
 19 18  1  0
 17 16  1  0
 16 15  1  0
 15 14  1  0
 14  4  1  0
  4  2  1  0
  5  4  1  0
  5 13  2  0
 13 12  1  0
 12 11  2  0
 11 10  1  0
 10  9  2  0
  9  8  1  0
  8  7  2  0
  7  6  1  0
  6  5  1  0
 10  6  1  0
M  END
>  <id>  (153) 
153

>  <inchikey>  (153) 
DPLORBPGZRNKJU-AWEZNQCLSA-N

>  <alias>  (153) 
B0805b

>  <smiles>  (153) 
O=S1(=O)[C@H](c2ccccc2)CCCN1c1cccc2nncn12

>  <path>  (153) 
/opt/xchem-fragalysis-2/maxwin/BulkDock/TARGETS/D68EV3C/aligned_files/B0805b/B0805b.pdb

>  <distance_score>  (153) 
None

>  <energy_score>  (153) 
None

>  <compound>  (153) 
DPLORBPGZRNKJU-UHFFFAOYSA-N

>  <compound_id>  (153) 
123

>  <target>  (153) 
D68EV3C

>  <tags>  (153) 
['BAD count', '[Other] upload_1 2025-02-11', 'hits', 'MEDIOCRE count', 'Main status', 'GOOD count']

>  <inspirations>  (153) 
None

>  <subsites>  (153) 
None

>  <reference>  (153) 


>  <observation_longname>  (153) 
D68EV3CPROB-x0805_B_301_v1

>  <ConformerSites alias>  (153) 
1a - 7gp9/A/201

>  <CanonSites alias>  (153) 
1 - 7gp9/A/201/1

>  <CrystalformSites alias>  (153) 
F1e - 0436/B/301

>  <Quatassemblies alias>  (153) 
A1 - monomer

>  <Crystalforms alias>  (153) 
F1 - D68_3C_PROB

>  <ConformerSites upload name>  (153) 
1a - 7gp9/A/201

>  <CanonSites upload name>  (153) 
1 - 7gp9/A/201/1

>  <CrystalformSites upload name>  (153) 
F1e - D68EV3CPROB-x0436/B/301/1

>  <Quatassemblies upload name>  (153) 
A1 - monomer

>  <Crystalforms upload name>  (153) 
F1 - D68_3C_PROB

>  <ConformerSites short tag>  (153) 
1a - 7gp9/A/201

>  <CanonSites short tag>  (153) 
1 - 7gp9/A/201/1

>  <CrystalformSites short tag>  (153) 
F1e - 0436/B/301

>  <Quatassemblies short tag>  (153) 
A1 - monomer

>  <Crystalforms short tag>  (153) 
F1 - D68_3C_PROB

>  <Centroid res>  (153) 
7gp9/A/163/A_v1

>  <Experiment code>  (153) 
D68EV3CPROB-x0805

>  <Pose>  (153) 
B0805a

$$$$
B0839a
     RDKit          3D

 21 23  0  0  0  0  0  0  0  0999 V2000
    7.9110  -10.0450   26.5630 O   0  0  0  0  0  0  0  0  0  0  0  0
    7.4740   -8.8980   26.5280 C   0  0  0  0  0  0  0  0  0  0  0  0
    7.0210   -8.3530   25.3500 N   0  0  0  0  0  0  0  0  0  0  0  0
    6.5350   -7.0900   25.2050 C   0  0  0  0  0  0  0  0  0  0  0  0
    7.4130   -8.0020   27.7050 C   0  0  0  0  0  0  0  0  0  0  0  0
    6.9130   -6.6930   27.5790 C   0  0  0  0  0  0  0  0  0  0  0  0
    6.9100   -5.8500   28.6910 C   0  0  0  0  0  0  0  0  0  0  0  0
    7.4040   -6.2970   29.9070 C   0  0  0  0  0  0  0  0  0  0  0  0
    7.8970   -7.5790   30.0290 C   0  0  0  0  0  0  0  0  0  0  0  0
    7.8990   -8.4370   28.9390 C   0  0  0  0  0  0  0  0  0  0  0  0
    6.4500   -6.2480   26.2570 C   0  0  0  0  0  0  0  0  0  0  0  0
    5.8990   -5.0000   26.1320 N   0  0  0  0  0  0  0  0  0  0  0  0
    4.5660   -4.7800   26.3480 C   0  0  0  0  0  0  0  0  0  0  0  0
    3.7730   -5.6770   26.6460 O   0  0  0  0  0  0  0  0  0  0  0  0
    4.1400   -3.3690   26.1850 C   0  0  0  0  0  0  0  0  0  0  0  0
    5.0770   -2.3610   26.0440 N   0  0  0  0  0  0  0  0  0  0  0  0
    4.3700   -1.2980   25.9250 C   0  0  0  0  0  0  0  0  0  0  0  0
    3.0290   -1.4910   25.9760 O   0  0  0  0  0  0  0  0  0  0  0  0
    2.8980   -2.8450   26.1470 C   0  0  0  0  0  0  0  0  0  0  0  0
    1.5190   -3.3820   26.2410 C   0  0  0  0  0  0  0  0  0  0  0  0
    0.9490   -3.7130   24.9570 N   0  0  0  0  0  0  0  0  0  0  0  0
 21 20  1  0
 20 19  1  0
 19 18  1  0
 18 17  1  0
 17 16  2  0
 16 15  1  0
 19 15  2  0
 15 13  1  0
 14 13  2  0
 13 12  1  0
 12 11  1  0
 11  4  2  0
  4  3  1  0
  3  2  1  0
  2  1  2  0
  5  2  1  0
  5 10  2  0
 10  9  1  0
  9  8  2  0
  8  7  1  0
  7  6  2  0
 11  6  1  0
  6  5  1  0
M  END
>  <id>  (154) 
154

>  <inchikey>  (154) 
NJGXKVVNPAPYKZ-UHFFFAOYSA-N

>  <alias>  (154) 
B0839a

>  <smiles>  (154) 
NCc1ocnc1C(=O)Nc1c[nH]c(=O)c2ccccc12

>  <path>  (154) 
/opt/xchem-fragalysis-2/maxwin/BulkDock/TARGETS/D68EV3C/aligned_files/B0839a/B0839a_hippo.pdb

>  <distance_score>  (154) 
None

>  <energy_score>  (154) 
None

>  <compound>  (154) 
NJGXKVVNPAPYKZ-UHFFFAOYSA-N

>  <compound_id>  (154) 
124

>  <target>  (154) 
D68EV3C

>  <tags>  (154) 
['BAD count', '[Other] upload_1 2025-02-11', '[Other] iter1_frags', 'hits', 'MEDIOCRE count', 'Main status', 'GOOD count']

>  <inspirations>  (154) 
None

>  <subsites>  (154) 
None

>  <reference>  (154) 


>  <observation_longname>  (154) 
D68EV3CPROB-x0839_A_308_v1

>  <ConformerSites alias>  (154) 
1a - 7gp9/A/201

>  <CanonSites alias>  (154) 
1 - 7gp9/A/201/1

>  <CrystalformSites alias>  (154) 
F1h - 1020/A/308

>  <Quatassemblies alias>  (154) 
A1 - monomer

>  <Crystalforms alias>  (154) 
F1 - D68_3C_PROB

>  <ConformerSites upload name>  (154) 
1a - 7gp9/A/201

>  <CanonSites upload name>  (154) 
1 - 7gp9/A/201/1

>  <CrystalformSites upload name>  (154) 
F1h - D68EV3CPROB-x1020/A/308/1

>  <Quatassemblies upload name>  (154) 
A1 - monomer

>  <Crystalforms upload name>  (154) 
F1 - D68_3C_PROB

>  <ConformerSites short tag>  (154) 
1a - 7gp9/A/201

>  <CanonSites short tag>  (154) 
1 - 7gp9/A/201/1

>  <CrystalformSites short tag>  (154) 
F1h - 1020/A/308

>  <Quatassemblies short tag>  (154) 
A1 - monomer

>  <Crystalforms short tag>  (154) 
F1 - D68_3C_PROB

>  <Centroid res>  (154) 
7gp9/A/163/A_v1

>  <Experiment code>  (154) 
D68EV3CPROB-x0839

>  <Pose>  (154) 
B0839a

$$$$
B0839b
     RDKit          3D

 21 23  0  0  0  0  0  0  0  0999 V2000
    7.8340  -10.4360   26.4370 O   0  0  0  0  0  0  0  0  0  0  0  0
    7.4740   -9.2620   26.4410 C   0  0  0  0  0  0  0  0  0  0  0  0
    7.0790   -8.6400   25.2800 N   0  0  0  0  0  0  0  0  0  0  0  0
    6.6820   -7.3410   25.1810 C   0  0  0  0  0  0  0  0  0  0  0  0
    7.4400   -8.4160   27.6530 C   0  0  0  0  0  0  0  0  0  0  0  0
    7.0500   -7.0680   27.5720 C   0  0  0  0  0  0  0  0  0  0  0  0
    7.0470   -6.2850   28.7290 C   0  0  0  0  0  0  0  0  0  0  0  0
    7.4160   -6.8350   29.9440 C   0  0  0  0  0  0  0  0  0  0  0  0
    7.7840   -8.1610   30.0260 C   0  0  0  0  0  0  0  0  0  0  0  0
    7.7990   -8.9550   28.8910 C   0  0  0  0  0  0  0  0  0  0  0  0
    6.6520   -6.5330   26.2620 C   0  0  0  0  0  0  0  0  0  0  0  0
    6.2600   -5.2150   26.1910 N   0  0  0  0  0  0  0  0  0  0  0  0
    4.9550   -4.7960   26.2250 C   0  0  0  0  0  0  0  0  0  0  0  0
    3.9950   -5.5700   26.2520 O   0  0  0  0  0  0  0  0  0  0  0  0
    4.7740   -3.3220   26.1860 C   0  0  0  0  0  0  0  0  0  0  0  0
    3.7280   -2.7660   25.4690 N   0  0  0  0  0  0  0  0  0  0  0  0
    3.8230   -1.5110   25.7080 C   0  0  0  0  0  0  0  0  0  0  0  0
    4.8500   -1.1550   26.5190 O   0  0  0  0  0  0  0  0  0  0  0  0
    5.4590   -2.3470   26.8200 C   0  0  0  0  0  0  0  0  0  0  0  0
    6.6360   -2.2750   27.7260 C   0  0  0  0  0  0  0  0  0  0  0  0
    6.2940   -2.1790   29.1340 N   0  0  0  0  0  0  0  0  0  0  0  0
 21 20  1  0
 20 19  1  0
 19 18  1  0
 18 17  1  0
 17 16  2  0
 16 15  1  0
 19 15  2  0
 15 13  1  0
 14 13  2  0
 13 12  1  0
 12 11  1  0
 11  4  2  0
  4  3  1  0
  3  2  1  0
  2  1  2  0
  5  2  1  0
  5 10  2  0
 10  9  1  0
  9  8  2  0
  8  7  1  0
  7  6  2  0
 11  6  1  0
  6  5  1  0
M  END
>  <id>  (155) 
155

>  <inchikey>  (155) 
NJGXKVVNPAPYKZ-UHFFFAOYSA-N

>  <alias>  (155) 
B0839b

>  <smiles>  (155) 
NCc1ocnc1C(=O)Nc1c[nH]c(=O)c2ccccc12

>  <path>  (155) 
/opt/xchem-fragalysis-2/maxwin/BulkDock/TARGETS/D68EV3C/aligned_files/B0839b/B0839b_hippo.pdb

>  <distance_score>  (155) 
None

>  <energy_score>  (155) 
None

>  <compound>  (155) 
NJGXKVVNPAPYKZ-UHFFFAOYSA-N

>  <compound_id>  (155) 
124

>  <target>  (155) 
D68EV3C

>  <tags>  (155) 
['BAD count', '[Other] upload_1 2025-02-11', 'hits', 'MEDIOCRE count', 'Main status', 'GOOD count']

>  <inspirations>  (155) 
None

>  <subsites>  (155) 
None

>  <reference>  (155) 


>  <observation_longname>  (155) 
D68EV3CPROB-x0839_B_207_v1

>  <ConformerSites alias>  (155) 
1a - 7gp9/A/201

>  <CanonSites alias>  (155) 
1 - 7gp9/A/201/1

>  <CrystalformSites alias>  (155) 
F1g - 0839/B/207

>  <Quatassemblies alias>  (155) 
A1 - monomer

>  <Crystalforms alias>  (155) 
F1 - D68_3C_PROB

>  <ConformerSites upload name>  (155) 
1a - 7gp9/A/201

>  <CanonSites upload name>  (155) 
1 - 7gp9/A/201/1

>  <CrystalformSites upload name>  (155) 
F1g - D68EV3CPROB-x0839/B/207/1

>  <Quatassemblies upload name>  (155) 
A1 - monomer

>  <Crystalforms upload name>  (155) 
F1 - D68_3C_PROB

>  <ConformerSites short tag>  (155) 
1a - 7gp9/A/201

>  <CanonSites short tag>  (155) 
1 - 7gp9/A/201/1

>  <CrystalformSites short tag>  (155) 
F1g - 0839/B/207

>  <Quatassemblies short tag>  (155) 
A1 - monomer

>  <Crystalforms short tag>  (155) 
F1 - D68_3C_PROB

>  <Centroid res>  (155) 
7gp9/A/163/A_v1

>  <Experiment code>  (155) 
D68EV3CPROB-x0839

>  <Pose>  (155) 
B0839a

$$$$
B0857a
     RDKit          3D

 16 18  0  0  0  0  0  0  0  0999 V2000
   -1.4260   -7.5370   34.6910 N   0  0  0  0  0  0  0  0  0  0  0  0
   -1.2750   -7.5410   33.3600 C   0  0  0  0  0  0  0  0  0  0  0  0
   -0.4460   -6.6370   32.7090 N   0  0  0  0  0  0  0  0  0  0  0  0
   -0.6170   -6.9420   31.3600 C   0  0  0  0  0  0  0  0  0  0  0  0
   -1.4670   -7.9530   31.2080 N   0  0  0  0  0  0  0  0  0  0  0  0
   -1.8850   -8.3320   32.4860 N   0  0  0  0  0  0  0  0  0  0  0  0
    0.3770   -5.6110   33.1320 C   0  0  0  0  0  0  0  0  0  0  0  0
    1.0510   -4.8470   32.2340 C   0  0  0  0  0  0  0  0  0  0  0  0
    0.8690   -5.1460   30.8370 C   0  0  0  0  0  0  0  0  0  0  0  0
    0.0720   -6.1530   30.4100 C   0  0  0  0  0  0  0  0  0  0  0  0
    1.9720   -3.7700   32.6570 C   0  0  0  0  0  0  0  0  0  0  0  0
    3.1550   -3.7110   32.0240 N   0  0  0  0  0  0  0  0  0  0  0  0
    3.9980   -2.7450   32.4160 C   0  0  0  0  0  0  0  0  0  0  0  0
    3.6730   -1.8540   33.4210 C   0  0  0  0  0  0  0  0  0  0  0  0
    2.4960   -1.9090   34.0530 N   0  0  0  0  0  0  0  0  0  0  0  0
    1.6500   -2.8680   33.6660 C   0  0  0  0  0  0  0  0  0  0  0  0
  2  1  1  0
  2  6  2  0
  6  5  1  0
  5  4  2  0
  4 10  1  0
 10  9  2  0
  9  8  1  0
 11  8  1  0
 11 16  2  0
 16 15  1  0
 15 14  2  0
 14 13  1  0
 13 12  2  0
 12 11  1  0
  8  7  2  0
  7  3  1  0
  3  2  1  0
  4  3  1  0
M  END
>  <id>  (156) 
156

>  <inchikey>  (156) 
UMISTZPDVYVABX-UHFFFAOYSA-N

>  <alias>  (156) 
B0857a

>  <smiles>  (156) 
Nc1nnc2ccc(-c3cnccn3)cn12

>  <path>  (156) 
/opt/xchem-fragalysis-2/maxwin/BulkDock/TARGETS/D68EV3C/aligned_files/B0857a/B0857a.pdb

>  <distance_score>  (156) 
None

>  <energy_score>  (156) 
None

>  <compound>  (156) 
UMISTZPDVYVABX-UHFFFAOYSA-N

>  <compound_id>  (156) 
125

>  <target>  (156) 
D68EV3C

>  <tags>  (156) 
['BAD count', '[Other] upload_1 2025-02-11', '[Other] iter1_frags', 'hits', 'MEDIOCRE count', 'Main status', 'GOOD count']

>  <inspirations>  (156) 
None

>  <subsites>  (156) 
None

>  <reference>  (156) 


>  <observation_longname>  (156) 
D68EV3CPROB-x0857_A_308_v1

>  <ConformerSites alias>  (156) 
1a - 7gp9/A/201

>  <CanonSites alias>  (156) 
1 - 7gp9/A/201/1

>  <CrystalformSites alias>  (156) 
F1f - 0446/A/209

>  <Quatassemblies alias>  (156) 
A1 - monomer

>  <Crystalforms alias>  (156) 
F1 - D68_3C_PROB

>  <ConformerSites upload name>  (156) 
1a - 7gp9/A/201

>  <CanonSites upload name>  (156) 
1 - 7gp9/A/201/1

>  <CrystalformSites upload name>  (156) 
F1f - D68EV3CPROB-x0446/A/209/1

>  <Quatassemblies upload name>  (156) 
A1 - monomer

>  <Crystalforms upload name>  (156) 
F1 - D68_3C_PROB

>  <ConformerSites short tag>  (156) 
1a - 7gp9/A/201

>  <CanonSites short tag>  (156) 
1 - 7gp9/A/201/1

>  <CrystalformSites short tag>  (156) 
F1f - 0446/A/209

>  <Quatassemblies short tag>  (156) 
A1 - monomer

>  <Crystalforms short tag>  (156) 
F1 - D68_3C_PROB

>  <Centroid res>  (156) 
7gp9/A/163/A_v1

>  <Experiment code>  (156) 
D68EV3CPROB-x0857

>  <Pose>  (156) 
B0857a

$$$$
B0857b
     RDKit          3D

 16 18  0  0  0  0  0  0  0  0999 V2000
   -1.5630   -7.4920   34.6390 N   0  0  0  0  0  0  0  0  0  0  0  0
   -1.3700   -7.5900   33.3240 C   0  0  0  0  0  0  0  0  0  0  0  0
   -0.4960   -6.7620   32.6410 N   0  0  0  0  0  0  0  0  0  0  0  0
   -0.5810   -7.1980   31.3210 C   0  0  0  0  0  0  0  0  0  0  0  0
   -1.4410   -8.2030   31.2140 N   0  0  0  0  0  0  0  0  0  0  0  0
   -1.9450   -8.4510   32.4930 N   0  0  0  0  0  0  0  0  0  0  0  0
    0.2920   -5.6920   33.0120 C   0  0  0  0  0  0  0  0  0  0  0  0
    1.0060   -4.9960   32.0890 C   0  0  0  0  0  0  0  0  0  0  0  0
    0.9420   -5.4600   30.7220 C   0  0  0  0  0  0  0  0  0  0  0  0
    0.1880   -6.5200   30.3490 C   0  0  0  0  0  0  0  0  0  0  0  0
    1.7560   -3.7610   32.4450 C   0  0  0  0  0  0  0  0  0  0  0  0
    2.6920   -3.3580   31.5720 N   0  0  0  0  0  0  0  0  0  0  0  0
    3.3170   -2.2030   31.8480 C   0  0  0  0  0  0  0  0  0  0  0  0
    3.0250   -1.4650   32.9760 C   0  0  0  0  0  0  0  0  0  0  0  0
    2.1060   -1.8670   33.8580 N   0  0  0  0  0  0  0  0  0  0  0  0
    1.4740   -3.0150   33.5870 C   0  0  0  0  0  0  0  0  0  0  0  0
  2  1  1  0
  2  6  2  0
  6  5  1  0
  5  4  2  0
  4 10  1  0
 10  9  2  0
  9  8  1  0
 11  8  1  0
 11 16  2  0
 16 15  1  0
 15 14  2  0
 14 13  1  0
 13 12  2  0
 12 11  1  0
  8  7  2  0
  7  3  1  0
  3  2  1  0
  4  3  1  0
M  END
>  <id>  (157) 
157

>  <inchikey>  (157) 
UMISTZPDVYVABX-UHFFFAOYSA-N

>  <alias>  (157) 
B0857b

>  <smiles>  (157) 
Nc1nnc2ccc(-c3cnccn3)cn12

>  <path>  (157) 
/opt/xchem-fragalysis-2/maxwin/BulkDock/TARGETS/D68EV3C/aligned_files/B0857b/B0857b.pdb

>  <distance_score>  (157) 
None

>  <energy_score>  (157) 
None

>  <compound>  (157) 
UMISTZPDVYVABX-UHFFFAOYSA-N

>  <compound_id>  (157) 
125

>  <target>  (157) 
D68EV3C

>  <tags>  (157) 
['BAD count', '[Other] upload_1 2025-02-11', 'hits', 'MEDIOCRE count', 'Main status', 'GOOD count']

>  <inspirations>  (157) 
None

>  <subsites>  (157) 
None

>  <reference>  (157) 


>  <observation_longname>  (157) 
D68EV3CPROB-x0857_B_207_v1

>  <ConformerSites alias>  (157) 
1a - 7gp9/A/201

>  <CanonSites alias>  (157) 
1 - 7gp9/A/201/1

>  <CrystalformSites alias>  (157) 
F1e - 0436/B/301

>  <Quatassemblies alias>  (157) 
A1 - monomer

>  <Crystalforms alias>  (157) 
F1 - D68_3C_PROB

>  <ConformerSites upload name>  (157) 
1a - 7gp9/A/201

>  <CanonSites upload name>  (157) 
1 - 7gp9/A/201/1

>  <CrystalformSites upload name>  (157) 
F1e - D68EV3CPROB-x0436/B/301/1

>  <Quatassemblies upload name>  (157) 
A1 - monomer

>  <Crystalforms upload name>  (157) 
F1 - D68_3C_PROB

>  <ConformerSites short tag>  (157) 
1a - 7gp9/A/201

>  <CanonSites short tag>  (157) 
1 - 7gp9/A/201/1

>  <CrystalformSites short tag>  (157) 
F1e - 0436/B/301

>  <Quatassemblies short tag>  (157) 
A1 - monomer

>  <Crystalforms short tag>  (157) 
F1 - D68_3C_PROB

>  <Centroid res>  (157) 
7gp9/A/163/A_v1

>  <Experiment code>  (157) 
D68EV3CPROB-x0857

>  <Pose>  (157) 
B0857a

$$$$
B0875a
     RDKit          3D

 18 20  0  0  0  0  0  0  0  0999 V2000
    0.4630   -7.3520   35.6810 O   0  0  0  0  0  0  0  0  0  0  0  0
   -0.1670   -6.3260   35.9050 C   0  0  0  0  0  0  0  0  0  0  0  0
   -0.3500   -5.8550   37.2020 N   0  0  0  0  0  0  0  0  0  0  0  0
   -0.0960   -6.5820   38.3780 C   0  0  0  0  0  0  0  0  0  0  0  0
   -0.5760   -6.3550   39.6380 C   0  0  0  0  0  0  0  0  0  0  0  0
   -0.0940   -7.3190   40.4290 N   0  0  0  0  0  0  0  0  0  0  0  0
    0.6910   -8.1750   39.7420 N   0  0  0  0  0  0  0  0  0  0  0  0
    0.6990   -7.7280   38.4930 C   0  0  0  0  0  0  0  0  0  0  0  0
   -0.2820   -5.3690   34.9120 N   0  0  0  0  0  0  0  0  0  0  0  0
   -0.0810   -5.6760   33.5660 C   0  0  0  0  0  0  0  0  0  0  0  0
   -0.8520   -6.6970   32.9730 N   0  0  0  0  0  0  0  0  0  0  0  0
   -1.7600   -7.5860   33.4760 C   0  0  0  0  0  0  0  0  0  0  0  0
   -2.1530   -8.4200   32.5580 N   0  0  0  0  0  0  0  0  0  0  0  0
   -1.5040   -8.0830   31.3730 N   0  0  0  0  0  0  0  0  0  0  0  0
   -0.7240   -7.0400   31.6320 C   0  0  0  0  0  0  0  0  0  0  0  0
    0.2020   -6.3160   30.8390 C   0  0  0  0  0  0  0  0  0  0  0  0
    0.9580   -5.3230   31.4060 C   0  0  0  0  0  0  0  0  0  0  0  0
    0.8350   -4.9980   32.7770 C   0  0  0  0  0  0  0  0  0  0  0  0
  2  1  2  0
  3  2  1  0
  4  3  1  0
  4  8  1  0
  8  7  2  0
  7  6  1  0
  6  5  1  0
  5  4  2  0
  9  2  1  0
 10  9  1  0
 10 18  2  0
 18 17  1  0
 17 16  2  0
 16 15  1  0
 15 14  2  0
 14 13  1  0
 13 12  2  0
 12 11  1  0
 11 10  1  0
 15 11  1  0
M  END
>  <id>  (158) 
158

>  <inchikey>  (158) 
JRIYYXNYNZMFKZ-UHFFFAOYSA-N

>  <alias>  (158) 
B0875a

>  <smiles>  (158) 
O=C(Nc1cn[nH]c1)Nc1cccc2nncn12

>  <path>  (158) 
/opt/xchem-fragalysis-2/maxwin/BulkDock/TARGETS/D68EV3C/aligned_files/B0875a/B0875a_hippo.pdb

>  <distance_score>  (158) 
None

>  <energy_score>  (158) 
None

>  <compound>  (158) 
JRIYYXNYNZMFKZ-UHFFFAOYSA-N

>  <compound_id>  (158) 
126

>  <target>  (158) 
D68EV3C

>  <tags>  (158) 
['BAD count', '[Other] upload_1 2025-02-11', '[Other] iter1_frags', 'hits', 'MEDIOCRE count', 'Main status', 'GOOD count']

>  <inspirations>  (158) 
None

>  <subsites>  (158) 
None

>  <reference>  (158) 


>  <observation_longname>  (158) 
D68EV3CPROB-x0875_B_301_v1

>  <ConformerSites alias>  (158) 
1a - 7gp9/A/201

>  <CanonSites alias>  (158) 
1 - 7gp9/A/201/1

>  <CrystalformSites alias>  (158) 
F1e - 0436/B/301

>  <Quatassemblies alias>  (158) 
A1 - monomer

>  <Crystalforms alias>  (158) 
F1 - D68_3C_PROB

>  <ConformerSites upload name>  (158) 
1a - 7gp9/A/201

>  <CanonSites upload name>  (158) 
1 - 7gp9/A/201/1

>  <CrystalformSites upload name>  (158) 
F1e - D68EV3CPROB-x0436/B/301/1

>  <Quatassemblies upload name>  (158) 
A1 - monomer

>  <Crystalforms upload name>  (158) 
F1 - D68_3C_PROB

>  <ConformerSites short tag>  (158) 
1a - 7gp9/A/201

>  <CanonSites short tag>  (158) 
1 - 7gp9/A/201/1

>  <CrystalformSites short tag>  (158) 
F1e - 0436/B/301

>  <Quatassemblies short tag>  (158) 
A1 - monomer

>  <Crystalforms short tag>  (158) 
F1 - D68_3C_PROB

>  <Centroid res>  (158) 
7gp9/A/163/A_v1

>  <Experiment code>  (158) 
D68EV3CPROB-x0875

>  <Pose>  (158) 
B0875a

$$$$
B0875b
     RDKit          3D

 18 20  0  0  0  0  0  0  0  0999 V2000
    0.6140   -7.6840   35.6120 O   0  0  0  0  0  0  0  0  0  0  0  0
    0.2880   -6.5460   35.9520 C   0  0  0  0  0  0  0  0  0  0  0  0
    0.1880   -6.1820   37.2980 N   0  0  0  0  0  0  0  0  0  0  0  0
    0.5530   -7.0650   38.3300 C   0  0  0  0  0  0  0  0  0  0  0  0
   -0.0790   -7.3040   39.5160 C   0  0  0  0  0  0  0  0  0  0  0  0
    0.6050   -8.2670   40.1400 N   0  0  0  0  0  0  0  0  0  0  0  0
    1.6720   -8.6700   39.4190 N   0  0  0  0  0  0  0  0  0  0  0  0
    1.6500   -7.9320   38.3150 C   0  0  0  0  0  0  0  0  0  0  0  0
   -0.3420   -5.6850   35.0680 N   0  0  0  0  0  0  0  0  0  0  0  0
   -0.1100   -5.7480   33.6980 C   0  0  0  0  0  0  0  0  0  0  0  0
   -0.8070   -6.7280   33.0120 N   0  0  0  0  0  0  0  0  0  0  0  0
   -1.6850   -7.6920   33.4170 C   0  0  0  0  0  0  0  0  0  0  0  0
   -2.0720   -8.4210   32.4090 N   0  0  0  0  0  0  0  0  0  0  0  0
   -1.4350   -7.9310   31.2660 N   0  0  0  0  0  0  0  0  0  0  0  0
   -0.6760   -6.9090   31.6420 C   0  0  0  0  0  0  0  0  0  0  0  0
    0.2020   -6.0510   30.9340 C   0  0  0  0  0  0  0  0  0  0  0  0
    0.8940   -5.0850   31.6030 C   0  0  0  0  0  0  0  0  0  0  0  0
    0.7510   -4.9160   32.9940 C   0  0  0  0  0  0  0  0  0  0  0  0
  2  1  2  0
  3  2  1  0
  4  3  1  0
  4  8  1  0
  8  7  2  0
  7  6  1  0
  6  5  1  0
  5  4  2  0
  9  2  1  0
 10  9  1  0
 10 18  2  0
 18 17  1  0
 17 16  2  0
 16 15  1  0
 15 14  2  0
 14 13  1  0
 13 12  2  0
 12 11  1  0
 11 10  1  0
 15 11  1  0
M  END
>  <id>  (159) 
159

>  <inchikey>  (159) 
JRIYYXNYNZMFKZ-UHFFFAOYSA-N

>  <alias>  (159) 
B0875b

>  <smiles>  (159) 
O=C(Nc1cn[nH]c1)Nc1cccc2nncn12

>  <path>  (159) 
/opt/xchem-fragalysis-2/maxwin/BulkDock/TARGETS/D68EV3C/aligned_files/B0875b/B0875b.pdb

>  <distance_score>  (159) 
None

>  <energy_score>  (159) 
None

>  <compound>  (159) 
JRIYYXNYNZMFKZ-UHFFFAOYSA-N

>  <compound_id>  (159) 
126

>  <target>  (159) 
D68EV3C

>  <tags>  (159) 
['BAD count', '[Other] upload_1 2025-02-11', 'hits', 'MEDIOCRE count', 'Main status', 'GOOD count']

>  <inspirations>  (159) 
None

>  <subsites>  (159) 
None

>  <reference>  (159) 


>  <observation_longname>  (159) 
D68EV3CPROB-x0875_C_208_v1

>  <ConformerSites alias>  (159) 
1a - 7gp9/A/201

>  <CanonSites alias>  (159) 
1 - 7gp9/A/201/1

>  <CrystalformSites alias>  (159) 
F1f - 0446/A/209

>  <Quatassemblies alias>  (159) 
A1 - monomer

>  <Crystalforms alias>  (159) 
F1 - D68_3C_PROB

>  <ConformerSites upload name>  (159) 
1a - 7gp9/A/201

>  <CanonSites upload name>  (159) 
1 - 7gp9/A/201/1

>  <CrystalformSites upload name>  (159) 
F1f - D68EV3CPROB-x0446/A/209/1

>  <Quatassemblies upload name>  (159) 
A1 - monomer

>  <Crystalforms upload name>  (159) 
F1 - D68_3C_PROB

>  <ConformerSites short tag>  (159) 
1a - 7gp9/A/201

>  <CanonSites short tag>  (159) 
1 - 7gp9/A/201/1

>  <CrystalformSites short tag>  (159) 
F1f - 0446/A/209

>  <Quatassemblies short tag>  (159) 
A1 - monomer

>  <Crystalforms short tag>  (159) 
F1 - D68_3C_PROB

>  <Centroid res>  (159) 
7gp9/A/163/A_v1

>  <Experiment code>  (159) 
D68EV3CPROB-x0875

>  <Pose>  (159) 
B0875a

$$$$
B0878b
     RDKit          3D

 24 27  0  0  0  0  0  0  0  0999 V2000
  -28.3660  -17.4920   33.4730 O   0  0  0  0  0  0  0  0  0  0  0  0
  -27.8430  -17.3900   32.3670 C   0  0  0  0  0  0  0  0  0  0  0  0
  -28.5360  -17.7160   31.2180 N   0  0  0  0  0  0  0  0  0  0  0  0
  -28.0250  -17.6810   29.9560 C   0  0  0  0  0  0  0  0  0  0  0  0
  -26.4510  -16.9410   32.1600 C   0  0  0  0  0  0  0  0  0  0  0  0
  -25.9050  -16.8840   30.8630 C   0  0  0  0  0  0  0  0  0  0  0  0
  -24.6030  -16.4170   30.6900 C   0  0  0  0  0  0  0  0  0  0  0  0
  -23.8670  -15.9880   31.7800 C   0  0  0  0  0  0  0  0  0  0  0  0
  -24.3960  -16.0520   33.0510 C   0  0  0  0  0  0  0  0  0  0  0  0
  -25.6790  -16.5310   33.2510 C   0  0  0  0  0  0  0  0  0  0  0  0
  -26.7550  -17.2780   29.7230 C   0  0  0  0  0  0  0  0  0  0  0  0
  -26.2410  -17.1400   28.4360 N   0  0  0  0  0  0  0  0  0  0  0  0
  -26.2920  -15.9290   27.8080 C   0  0  0  0  0  0  0  0  0  0  0  0
  -26.8020  -14.9440   28.3350 O   0  0  0  0  0  0  0  0  0  0  0  0
  -25.6920  -15.8660   26.4220 C   0  0  0  0  0  0  0  0  0  0  0  0
  -24.6600  -14.7280   26.1980 C   0  0  0  0  0  0  0  0  0  0  0  0
  -24.2310  -14.5140   24.7290 C   0  0  0  0  0  0  0  0  0  0  0  0
  -25.1960  -13.3950   24.6400 N   0  0  0  0  0  0  0  0  0  0  0  0
  -25.2750  -13.3080   26.1160 C   0  0  0  0  0  0  0  0  0  0  0  0
  -23.5610  -14.8460   27.2270 C   0  0  0  0  0  0  0  0  0  0  0  0
  -23.5830  -14.1500   28.3160 N   0  0  0  0  0  0  0  0  0  0  0  0
  -22.4380  -14.5180   29.0480 O   0  0  0  0  0  0  0  0  0  0  0  0
  -21.7610  -15.4350   28.3470 C   0  0  0  0  0  0  0  0  0  0  0  0
  -22.4030  -15.6860   27.2030 C   0  0  0  0  0  0  0  0  0  0  0  0
 14 13  2  0
 15 13  1  0
 16 15  1  0
 20 16  1  0
 20 24  1  0
 24 23  2  0
 23 22  1  0
 22 21  1  0
 21 20  2  0
 16 19  1  0
 19 18  1  0
 18 17  1  0
 17 16  1  0
 13 12  1  0
 12 11  1  0
 11  4  2  0
  4  3  1  0
  3  2  1  0
  2  1  2  0
  5  2  1  0
  5 10  2  0
 10  9  1  0
  9  8  2  0
  8  7  1  0
  7  6  2  0
 11  6  1  0
  6  5  1  0
M  END
>  <id>  (160) 
160

>  <inchikey>  (160) 
OSIVHOJSABHVDU-UHFFFAOYSA-N

>  <alias>  (160) 
B0878b

>  <smiles>  (160) 
O=C(CC1(c2ccon2)CNC1)Nc1c[nH]c(=O)c2ccccc12

>  <path>  (160) 
/opt/xchem-fragalysis-2/maxwin/BulkDock/TARGETS/D68EV3C/aligned_files/B0878b/B0878b.pdb

>  <distance_score>  (160) 
None

>  <energy_score>  (160) 
None

>  <compound>  (160) 
OSIVHOJSABHVDU-UHFFFAOYSA-N

>  <compound_id>  (160) 
127

>  <target>  (160) 
D68EV3C

>  <tags>  (160) 
['BAD count', '[Other] upload_1 2025-02-11', 'hits', 'MEDIOCRE count', 'Main status', 'GOOD count']

>  <inspirations>  (160) 
None

>  <subsites>  (160) 
None

>  <reference>  (160) 


>  <observation_longname>  (160) 
D68EV3CPROB-x0878_A_309_v1

>  <ConformerSites alias>  (160) 
31a - B0878/A/309

>  <CanonSites alias>  (160) 
31 - B0878/A/309/1

>  <CrystalformSites alias>  (160) 
F1bb - B0878/A/309

>  <Quatassemblies alias>  (160) 
A1 - monomer

>  <Crystalforms alias>  (160) 
F1 - D68_3C_PROB

>  <ConformerSites upload name>  (160) 
31a - D68EV3CPROB-x0878/A/309

>  <CanonSites upload name>  (160) 
31 - D68EV3CPROB-x0878/A/309/1

>  <CrystalformSites upload name>  (160) 
F1bb - D68EV3CPROB-x0878/A/309/1

>  <Quatassemblies upload name>  (160) 
A1 - monomer

>  <Crystalforms upload name>  (160) 
F1 - D68_3C_PROB

>  <ConformerSites short tag>  (160) 
31a - B0878/A/309

>  <CanonSites short tag>  (160) 
31 - B0878/A/309/1

>  <CrystalformSites short tag>  (160) 
F1bb - B0878/A/309

>  <Quatassemblies short tag>  (160) 
A1 - monomer

>  <Crystalforms short tag>  (160) 
F1 - D68_3C_PROB

>  <Centroid res>  (160) 
D68EV3CPROB-x0878/A/97/A_v1

>  <Experiment code>  (160) 
D68EV3CPROB-x0878

>  <Pose>  (160) 
B0878b

$$$$
B0878a
     RDKit          3D

 24 27  0  0  0  0  0  0  0  0999 V2000
  -14.2510  -18.9440   34.6090 O   0  0  0  0  0  0  0  0  0  0  0  0
  -14.7830  -20.0540   34.5770 C   0  0  0  0  0  0  0  0  0  0  0  0
  -14.1010  -21.1560   34.1010 N   0  0  0  0  0  0  0  0  0  0  0  0
  -14.6210  -22.4100   33.9870 C   0  0  0  0  0  0  0  0  0  0  0  0
  -16.1750  -20.3090   35.0040 C   0  0  0  0  0  0  0  0  0  0  0  0
  -16.7280  -21.5990   34.9060 C   0  0  0  0  0  0  0  0  0  0  0  0
  -18.0480  -21.8070   35.3110 C   0  0  0  0  0  0  0  0  0  0  0  0
  -18.8010  -20.7550   35.8100 C   0  0  0  0  0  0  0  0  0  0  0  0
  -18.2610  -19.4910   35.9010 C   0  0  0  0  0  0  0  0  0  0  0  0
  -16.9560  -19.2600   35.5010 C   0  0  0  0  0  0  0  0  0  0  0  0
  -15.8910  -22.6850   34.3640 C   0  0  0  0  0  0  0  0  0  0  0  0
  -16.3910  -23.9850   34.2350 N   0  0  0  0  0  0  0  0  0  0  0  0
  -16.2780  -24.9060   35.2390 C   0  0  0  0  0  0  0  0  0  0  0  0
  -15.7700  -24.6320   36.3220 O   0  0  0  0  0  0  0  0  0  0  0  0
  -16.8450  -26.2810   34.9560 C   0  0  0  0  0  0  0  0  0  0  0  0
  -17.8620  -26.7970   36.0060 C   0  0  0  0  0  0  0  0  0  0  0  0
  -18.3040  -28.2700   35.8650 C   0  0  0  0  0  0  0  0  0  0  0  0
  -17.3870  -28.6270   36.9720 N   0  0  0  0  0  0  0  0  0  0  0  0
  -17.2610  -27.2070   37.3700 C   0  0  0  0  0  0  0  0  0  0  0  0
  -18.9570  -25.7630   36.1100 C   0  0  0  0  0  0  0  0  0  0  0  0
  -18.9180  -24.8320   36.9980 N   0  0  0  0  0  0  0  0  0  0  0  0
  -20.0460  -24.0210   36.7770 O   0  0  0  0  0  0  0  0  0  0  0  0
  -20.7280  -24.5210   35.7420 C   0  0  0  0  0  0  0  0  0  0  0  0
  -20.1030  -25.6060   35.2820 C   0  0  0  0  0  0  0  0  0  0  0  0
 14 13  2  0
 15 13  1  0
 16 15  1  0
 20 16  1  0
 20 24  1  0
 24 23  2  0
 23 22  1  0
 22 21  1  0
 21 20  2  0
 16 19  1  0
 19 18  1  0
 18 17  1  0
 17 16  1  0
 13 12  1  0
 12 11  1  0
 11  4  2  0
  4  3  1  0
  3  2  1  0
  2  1  2  0
  5  2  1  0
  5 10  2  0
 10  9  1  0
  9  8  2  0
  8  7  1  0
  7  6  2  0
 11  6  1  0
  6  5  1  0
M  END
>  <id>  (161) 
161

>  <inchikey>  (161) 
OSIVHOJSABHVDU-UHFFFAOYSA-N

>  <alias>  (161) 
B0878a

>  <smiles>  (161) 
O=C(CC1(c2ccon2)CNC1)Nc1c[nH]c(=O)c2ccccc12

>  <path>  (161) 
/opt/xchem-fragalysis-2/maxwin/BulkDock/TARGETS/D68EV3C/aligned_files/B0878a/B0878a.pdb

>  <distance_score>  (161) 
None

>  <energy_score>  (161) 
None

>  <compound>  (161) 
OSIVHOJSABHVDU-UHFFFAOYSA-N

>  <compound_id>  (161) 
127

>  <target>  (161) 
D68EV3C

>  <tags>  (161) 
['BAD count', '[Other] upload_1 2025-02-11', 'hits', 'MEDIOCRE count', 'Main status', 'GOOD count']

>  <inspirations>  (161) 
None

>  <subsites>  (161) 
None

>  <reference>  (161) 


>  <observation_longname>  (161) 
D68EV3CPROB-x0878_B_301_v1

>  <ConformerSites alias>  (161) 
5j - B1120/A/308

>  <CanonSites alias>  (161) 
5 - B1120/A/308/1

>  <CrystalformSites alias>  (161) 
F1t - B0878/B/301

>  <Quatassemblies alias>  (161) 
A1 - monomer

>  <Crystalforms alias>  (161) 
F1 - D68_3C_PROB

>  <ConformerSites upload name>  (161) 
5j - D68EV3CPROB-x1120/A/308

>  <CanonSites upload name>  (161) 
5 - D68EV3CPROB-x1120/A/308/1

>  <CrystalformSites upload name>  (161) 
F1t - D68EV3CPROB-x0878/B/301/1

>  <Quatassemblies upload name>  (161) 
A1 - monomer

>  <Crystalforms upload name>  (161) 
F1 - D68_3C_PROB

>  <ConformerSites short tag>  (161) 
5j - B1120/A/308

>  <CanonSites short tag>  (161) 
5 - B1120/A/308/1

>  <CrystalformSites short tag>  (161) 
F1t - B0878/B/301

>  <Quatassemblies short tag>  (161) 
A1 - monomer

>  <Crystalforms short tag>  (161) 
F1 - D68_3C_PROB

>  <Centroid res>  (161) 
D68EV3CPROB-x1120/B/115/A_v1

>  <Experiment code>  (161) 
D68EV3CPROB-x0878

>  <Pose>  (161) 
B0878a

$$$$
B0914a
     RDKit          3D

 24 27  0  0  0  0  0  0  0  0999 V2000
    2.6520   -1.7390   29.9240 C   0  0  0  0  0  0  0  0  0  0  0  0
    1.9610   -2.3400   29.0290 C   0  0  0  0  0  0  0  0  0  0  0  0
    0.8420   -3.2790   29.3100 C   0  0  0  0  0  0  0  0  0  0  0  0
   -0.0470   -2.8300   30.3930 N   0  0  0  0  0  0  0  0  0  0  0  0
   -1.2450   -2.1750   30.2220 C   0  0  0  0  0  0  0  0  0  0  0  0
   -1.4700   -1.0510   29.2920 C   0  0  0  0  0  0  0  0  0  0  0  0
   -2.2990   -1.1790   28.1850 C   0  0  0  0  0  0  0  0  0  0  0  0
   -2.4830   -0.2090   27.2760 N   0  0  0  0  0  0  0  0  0  0  0  0
   -1.8290    0.9420   27.4620 C   0  0  0  0  0  0  0  0  0  0  0  0
   -0.9940    1.1730   28.5360 C   0  0  0  0  0  0  0  0  0  0  0  0
   -0.8170    0.1610   29.4620 C   0  0  0  0  0  0  0  0  0  0  0  0
   -2.1390   -2.6320   31.0760 N   0  0  0  0  0  0  0  0  0  0  0  0
   -1.5190   -3.5940   31.8740 N   0  0  0  0  0  0  0  0  0  0  0  0
   -0.2700   -3.6590   31.4770 C   0  0  0  0  0  0  0  0  0  0  0  0
    1.0430   -4.4520   32.3240 S   0  0  0  0  0  0  0  0  0  0  0  0
    0.2550   -5.7380   33.1900 C   0  0  0  0  0  0  0  0  0  0  0  0
   -0.4670   -6.7510   32.5360 N   0  0  0  0  0  0  0  0  0  0  0  0
   -0.6510   -7.1030   31.2280 C   0  0  0  0  0  0  0  0  0  0  0  0
   -1.4410   -8.1350   31.1290 N   0  0  0  0  0  0  0  0  0  0  0  0
   -1.8040   -8.5100   32.4190 N   0  0  0  0  0  0  0  0  0  0  0  0
   -1.2070   -7.6760   33.2570 C   0  0  0  0  0  0  0  0  0  0  0  0
   -1.1990   -7.5960   34.6700 C   0  0  0  0  0  0  0  0  0  0  0  0
   -0.4660   -6.6320   35.2830 C   0  0  0  0  0  0  0  0  0  0  0  0
    0.2680   -5.6980   34.5430 C   0  0  0  0  0  0  0  0  0  0  0  0
  2  1  2  0
  3  2  1  0
  4  3  1  0
  4 14  1  0
 15 14  1  0
 16 15  1  0
 16 24  2  0
 24 23  1  0
 23 22  2  0
 22 21  1  0
 21 20  2  0
 20 19  1  0
 19 18  2  0
 18 17  1  0
 17 16  1  0
 21 17  1  0
 14 13  2  0
 13 12  1  0
 12  5  2  0
  5  4  1  0
  6  5  1  0
  6 11  2  0
 11 10  1  0
 10  9  2  0
  9  8  1  0
  8  7  2  0
  7  6  1  0
M  END
>  <id>  (162) 
162

>  <inchikey>  (162) 
RYSJOJRUDGPUDU-UHFFFAOYSA-N

>  <alias>  (162) 
B0914a

>  <smiles>  (162) 
C=CCn1c(Sc2cccc3nncn23)nnc1-c1cccnc1

>  <path>  (162) 
/opt/xchem-fragalysis-2/maxwin/BulkDock/TARGETS/D68EV3C/aligned_files/B0914a/B0914a.pdb

>  <distance_score>  (162) 
None

>  <energy_score>  (162) 
None

>  <compound>  (162) 
RYSJOJRUDGPUDU-UHFFFAOYSA-N

>  <compound_id>  (162) 
128

>  <target>  (162) 
D68EV3C

>  <tags>  (162) 
['BAD count', '[Other] upload_1 2025-02-11', '[Other] iter1_frags', 'hits', 'MEDIOCRE count', 'Main status', 'GOOD count']

>  <inspirations>  (162) 
None

>  <subsites>  (162) 
None

>  <reference>  (162) 


>  <observation_longname>  (162) 
D68EV3CPROB-x0914_A_308_v1

>  <ConformerSites alias>  (162) 
1a - 7gp9/A/201

>  <CanonSites alias>  (162) 
1 - 7gp9/A/201/1

>  <CrystalformSites alias>  (162) 
F1e - 0436/B/301

>  <Quatassemblies alias>  (162) 
A1 - monomer

>  <Crystalforms alias>  (162) 
F1 - D68_3C_PROB

>  <ConformerSites upload name>  (162) 
1a - 7gp9/A/201

>  <CanonSites upload name>  (162) 
1 - 7gp9/A/201/1

>  <CrystalformSites upload name>  (162) 
F1e - D68EV3CPROB-x0436/B/301/1

>  <Quatassemblies upload name>  (162) 
A1 - monomer

>  <Crystalforms upload name>  (162) 
F1 - D68_3C_PROB

>  <ConformerSites short tag>  (162) 
1a - 7gp9/A/201

>  <CanonSites short tag>  (162) 
1 - 7gp9/A/201/1

>  <CrystalformSites short tag>  (162) 
F1e - 0436/B/301

>  <Quatassemblies short tag>  (162) 
A1 - monomer

>  <Crystalforms short tag>  (162) 
F1 - D68_3C_PROB

>  <Centroid res>  (162) 
7gp9/A/163/A_v1

>  <Experiment code>  (162) 
D68EV3CPROB-x0914

>  <Pose>  (162) 
B0914a

$$$$
B0914b
     RDKit          3D

 24 27  0  0  0  0  0  0  0  0999 V2000
    1.2380   -4.0510   29.3570 C   0  0  0  0  0  0  0  0  0  0  0  0
    2.3530   -3.5820   29.8190 C   0  0  0  0  0  0  0  0  0  0  0  0
    2.5020   -2.6040   30.9470 C   0  0  0  0  0  0  0  0  0  0  0  0
    1.3670   -2.5550   31.8880 N   0  0  0  0  0  0  0  0  0  0  0  0
    0.7980   -1.4290   32.4450 C   0  0  0  0  0  0  0  0  0  0  0  0
    0.5640   -0.1600   31.7400 C   0  0  0  0  0  0  0  0  0  0  0  0
   -0.6040    0.0300   31.0110 C   0  0  0  0  0  0  0  0  0  0  0  0
   -0.8190    1.0840   30.2180 N   0  0  0  0  0  0  0  0  0  0  0  0
    0.1460    2.0090   30.1480 C   0  0  0  0  0  0  0  0  0  0  0  0
    1.3260    1.9320   30.8610 C   0  0  0  0  0  0  0  0  0  0  0  0
    1.5310    0.8320   31.6690 C   0  0  0  0  0  0  0  0  0  0  0  0
    0.3960   -1.6810   33.6710 N   0  0  0  0  0  0  0  0  0  0  0  0
    0.6710   -3.0190   33.9440 N   0  0  0  0  0  0  0  0  0  0  0  0
    1.2360   -3.5150   32.8670 C   0  0  0  0  0  0  0  0  0  0  0  0
    1.7340   -5.1750   32.6370 S   0  0  0  0  0  0  0  0  0  0  0  0
    0.4520   -6.0490   33.3810 C   0  0  0  0  0  0  0  0  0  0  0  0
   -0.3810   -6.8770   32.5960 N   0  0  0  0  0  0  0  0  0  0  0  0
   -0.4990   -7.1660   31.2640 C   0  0  0  0  0  0  0  0  0  0  0  0
   -1.4440   -8.0480   31.0580 N   0  0  0  0  0  0  0  0  0  0  0  0
   -1.9880   -8.3720   32.2940 N   0  0  0  0  0  0  0  0  0  0  0  0
   -1.3460   -7.6570   33.2150 C   0  0  0  0  0  0  0  0  0  0  0  0
   -1.4770   -7.5710   34.6250 C   0  0  0  0  0  0  0  0  0  0  0  0
   -0.6630   -6.7580   35.3520 C   0  0  0  0  0  0  0  0  0  0  0  0
    0.3190   -5.9780   34.7290 C   0  0  0  0  0  0  0  0  0  0  0  0
  2  1  2  0
  3  2  1  0
  4  3  1  0
  4 14  1  0
 15 14  1  0
 16 15  1  0
 16 24  2  0
 24 23  1  0
 23 22  2  0
 22 21  1  0
 21 20  2  0
 20 19  1  0
 19 18  2  0
 18 17  1  0
 17 16  1  0
 21 17  1  0
 14 13  2  0
 13 12  1  0
 12  5  2  0
  5  4  1  0
  6  5  1  0
  6 11  2  0
 11 10  1  0
 10  9  2  0
  9  8  1  0
  8  7  2  0
  7  6  1  0
M  END
>  <id>  (163) 
163

>  <inchikey>  (163) 
RYSJOJRUDGPUDU-UHFFFAOYSA-N

>  <alias>  (163) 
B0914b

>  <smiles>  (163) 
C=CCn1c(Sc2cccc3nncn23)nnc1-c1cccnc1

>  <path>  (163) 
/opt/xchem-fragalysis-2/maxwin/BulkDock/TARGETS/D68EV3C/aligned_files/B0914b/B0914b.pdb

>  <distance_score>  (163) 
None

>  <energy_score>  (163) 
None

>  <compound>  (163) 
RYSJOJRUDGPUDU-UHFFFAOYSA-N

>  <compound_id>  (163) 
128

>  <target>  (163) 
D68EV3C

>  <tags>  (163) 
['BAD count', '[Other] upload_1 2025-02-11', 'hits', 'MEDIOCRE count', 'Main status', 'GOOD count']

>  <inspirations>  (163) 
None

>  <subsites>  (163) 
None

>  <reference>  (163) 


>  <observation_longname>  (163) 
D68EV3CPROB-x0914_A_309_v1

>  <ConformerSites alias>  (163) 
1a - 7gp9/A/201

>  <CanonSites alias>  (163) 
1 - 7gp9/A/201/1

>  <CrystalformSites alias>  (163) 
F1f - 0446/A/209

>  <Quatassemblies alias>  (163) 
A1 - monomer

>  <Crystalforms alias>  (163) 
F1 - D68_3C_PROB

>  <ConformerSites upload name>  (163) 
1a - 7gp9/A/201

>  <CanonSites upload name>  (163) 
1 - 7gp9/A/201/1

>  <CrystalformSites upload name>  (163) 
F1f - D68EV3CPROB-x0446/A/209/1

>  <Quatassemblies upload name>  (163) 
A1 - monomer

>  <Crystalforms upload name>  (163) 
F1 - D68_3C_PROB

>  <ConformerSites short tag>  (163) 
1a - 7gp9/A/201

>  <CanonSites short tag>  (163) 
1 - 7gp9/A/201/1

>  <CrystalformSites short tag>  (163) 
F1f - 0446/A/209

>  <Quatassemblies short tag>  (163) 
A1 - monomer

>  <Crystalforms short tag>  (163) 
F1 - D68_3C_PROB

>  <Centroid res>  (163) 
7gp9/A/163/A_v1

>  <Experiment code>  (163) 
D68EV3CPROB-x0914

>  <Pose>  (163) 
B0914a

$$$$
B0931a
     RDKit          3D

 17 19  0  0  0  0  0  0  0  0999 V2000
    0.6700   -5.7350   31.1840 C   0  0  0  0  0  0  0  0  0  0  0  0
    1.3360   -5.0850   32.1850 C   0  0  0  0  0  0  0  0  0  0  0  0
   -0.2940   -6.7220   31.5160 C   0  0  0  0  0  0  0  0  0  0  0  0
   -1.0730   -7.5060   30.7780 N   0  0  0  0  0  0  0  0  0  0  0  0
   -1.8360   -8.2790   31.6530 N   0  0  0  0  0  0  0  0  0  0  0  0
   -1.4980   -7.9500   32.8690 C   0  0  0  0  0  0  0  0  0  0  0  0
   -0.5300   -6.9850   32.8610 N   0  0  0  0  0  0  0  0  0  0  0  0
    0.1700   -6.3280   33.8790 C   0  0  0  0  0  0  0  0  0  0  0  0
    1.0880   -5.3860   33.5440 C   0  0  0  0  0  0  0  0  0  0  0  0
   -0.1950   -6.8350   35.5170 S   0  0  0  0  0  0  0  0  0  0  0  0
    1.0230   -6.0070   36.5900 C   0  0  0  0  0  0  0  0  0  0  0  0
    0.7160   -6.4140   38.0040 C   0  0  0  0  0  0  0  0  0  0  0  0
    0.2580   -5.4930   38.9300 C   0  0  0  0  0  0  0  0  0  0  0  0
   -0.0240   -5.9110   40.2160 C   0  0  0  0  0  0  0  0  0  0  0  0
    0.1100   -7.1770   40.6300 N   0  0  0  0  0  0  0  0  0  0  0  0
    0.5580   -8.0580   39.7280 C   0  0  0  0  0  0  0  0  0  0  0  0
    0.8710   -7.7250   38.4240 C   0  0  0  0  0  0  0  0  0  0  0  0
  2  9  1  0
  9  8  2  0
 10  8  1  0
 11 10  1  0
 12 11  1  0
 12 17  2  0
 17 16  1  0
 16 15  2  0
 15 14  1  0
 14 13  2  0
 13 12  1  0
  8  7  1  0
  7  6  1  0
  6  5  2  0
  5  4  1  0
  4  3  2  0
  7  3  1  0
  3  1  1  0
  2  1  2  0
M  END
>  <id>  (164) 
164

>  <inchikey>  (164) 
YKUFZDVJLQYFAS-UHFFFAOYSA-N

>  <alias>  (164) 
B0931a

>  <smiles>  (164) 
c1cc(SCc2ccncc2)n2cnnc2c1

>  <path>  (164) 
/opt/xchem-fragalysis-2/maxwin/BulkDock/TARGETS/D68EV3C/aligned_files/B0931a/B0931a.pdb

>  <distance_score>  (164) 
None

>  <energy_score>  (164) 
None

>  <compound>  (164) 
YKUFZDVJLQYFAS-UHFFFAOYSA-N

>  <compound_id>  (164) 
129

>  <target>  (164) 
D68EV3C

>  <tags>  (164) 
['BAD count', '[Other] upload_1 2025-02-11', '[Other] iter1_frags', 'hits', 'MEDIOCRE count', 'Main status', 'GOOD count']

>  <inspirations>  (164) 
None

>  <subsites>  (164) 
None

>  <reference>  (164) 


>  <observation_longname>  (164) 
D68EV3CPROB-x0931_A_308_v1

>  <ConformerSites alias>  (164) 
1a - 7gp9/A/201

>  <CanonSites alias>  (164) 
1 - 7gp9/A/201/1

>  <CrystalformSites alias>  (164) 
F1f - 0446/A/209

>  <Quatassemblies alias>  (164) 
A1 - monomer

>  <Crystalforms alias>  (164) 
F1 - D68_3C_PROB

>  <ConformerSites upload name>  (164) 
1a - 7gp9/A/201

>  <CanonSites upload name>  (164) 
1 - 7gp9/A/201/1

>  <CrystalformSites upload name>  (164) 
F1f - D68EV3CPROB-x0446/A/209/1

>  <Quatassemblies upload name>  (164) 
A1 - monomer

>  <Crystalforms upload name>  (164) 
F1 - D68_3C_PROB

>  <ConformerSites short tag>  (164) 
1a - 7gp9/A/201

>  <CanonSites short tag>  (164) 
1 - 7gp9/A/201/1

>  <CrystalformSites short tag>  (164) 
F1f - 0446/A/209

>  <Quatassemblies short tag>  (164) 
A1 - monomer

>  <Crystalforms short tag>  (164) 
F1 - D68_3C_PROB

>  <Centroid res>  (164) 
7gp9/A/163/A_v1

>  <Experiment code>  (164) 
D68EV3CPROB-x0931

>  <Pose>  (164) 
B0931a

$$$$
B0931b
     RDKit          3D

 17 19  0  0  0  0  0  0  0  0999 V2000
    0.0840   -6.2770   30.6450 C   0  0  0  0  0  0  0  0  0  0  0  0
    0.8080   -5.3770   31.3570 C   0  0  0  0  0  0  0  0  0  0  0  0
   -0.7690   -7.1720   31.3270 C   0  0  0  0  0  0  0  0  0  0  0  0
   -1.6000   -8.1110   30.9060 N   0  0  0  0  0  0  0  0  0  0  0  0
   -2.2100   -8.6610   32.0310 N   0  0  0  0  0  0  0  0  0  0  0  0
   -1.7340   -8.0520   33.0780 C   0  0  0  0  0  0  0  0  0  0  0  0
   -0.8230   -7.1050   32.7150 N   0  0  0  0  0  0  0  0  0  0  0  0
   -0.0690   -6.1970   33.4500 C   0  0  0  0  0  0  0  0  0  0  0  0
    0.7240   -5.3370   32.7600 C   0  0  0  0  0  0  0  0  0  0  0  0
   -0.2080   -6.2850   35.1970 S   0  0  0  0  0  0  0  0  0  0  0  0
    0.5700   -4.7270   35.7370 C   0  0  0  0  0  0  0  0  0  0  0  0
    2.0480   -4.7440   35.4450 C   0  0  0  0  0  0  0  0  0  0  0  0
    2.8200   -5.8580   35.7190 C   0  0  0  0  0  0  0  0  0  0  0  0
    4.1420   -5.8820   35.3130 C   0  0  0  0  0  0  0  0  0  0  0  0
    4.7390   -4.8690   34.6800 N   0  0  0  0  0  0  0  0  0  0  0  0
    3.9920   -3.7850   34.4440 C   0  0  0  0  0  0  0  0  0  0  0  0
    2.6620   -3.6800   34.8060 C   0  0  0  0  0  0  0  0  0  0  0  0
  2  9  1  0
  9  8  2  0
 10  8  1  0
 11 10  1  0
 12 11  1  0
 12 17  2  0
 17 16  1  0
 16 15  2  0
 15 14  1  0
 14 13  2  0
 13 12  1  0
  8  7  1  0
  7  6  1  0
  6  5  2  0
  5  4  1  0
  4  3  2  0
  7  3  1  0
  3  1  1  0
  2  1  2  0
M  END
>  <id>  (165) 
165

>  <inchikey>  (165) 
YKUFZDVJLQYFAS-UHFFFAOYSA-N

>  <alias>  (165) 
B0931b

>  <smiles>  (165) 
c1cc(SCc2ccncc2)n2cnnc2c1

>  <path>  (165) 
/opt/xchem-fragalysis-2/maxwin/BulkDock/TARGETS/D68EV3C/aligned_files/B0931b/B0931b.pdb

>  <distance_score>  (165) 
None

>  <energy_score>  (165) 
None

>  <compound>  (165) 
YKUFZDVJLQYFAS-UHFFFAOYSA-N

>  <compound_id>  (165) 
129

>  <target>  (165) 
D68EV3C

>  <tags>  (165) 
['BAD count', '[Other] upload_1 2025-02-11', 'hits', 'MEDIOCRE count', 'Main status', 'GOOD count']

>  <inspirations>  (165) 
None

>  <subsites>  (165) 
None

>  <reference>  (165) 


>  <observation_longname>  (165) 
D68EV3CPROB-x0931_B_207_v1

>  <ConformerSites alias>  (165) 
1a - 7gp9/A/201

>  <CanonSites alias>  (165) 
1 - 7gp9/A/201/1

>  <CrystalformSites alias>  (165) 
F1e - 0436/B/301

>  <Quatassemblies alias>  (165) 
A1 - monomer

>  <Crystalforms alias>  (165) 
F1 - D68_3C_PROB

>  <ConformerSites upload name>  (165) 
1a - 7gp9/A/201

>  <CanonSites upload name>  (165) 
1 - 7gp9/A/201/1

>  <CrystalformSites upload name>  (165) 
F1e - D68EV3CPROB-x0436/B/301/1

>  <Quatassemblies upload name>  (165) 
A1 - monomer

>  <Crystalforms upload name>  (165) 
F1 - D68_3C_PROB

>  <ConformerSites short tag>  (165) 
1a - 7gp9/A/201

>  <CanonSites short tag>  (165) 
1 - 7gp9/A/201/1

>  <CrystalformSites short tag>  (165) 
F1e - 0436/B/301

>  <Quatassemblies short tag>  (165) 
A1 - monomer

>  <Crystalforms short tag>  (165) 
F1 - D68_3C_PROB

>  <Centroid res>  (165) 
7gp9/A/163/A_v1

>  <Experiment code>  (165) 
D68EV3CPROB-x0931

>  <Pose>  (165) 
B0931a

$$$$
B0938a
     RDKit          3D

 20 23  0  0  0  0  0  0  0  0999 V2000
    2.9460   -8.5490   35.0310 O   0  0  0  0  0  0  0  0  0  0  0  0
    2.1430   -7.9790   35.7770 C   0  0  0  0  0  0  0  0  0  0  0  0
    2.0170   -8.1090   37.2270 C   0  0  0  0  0  0  0  0  0  0  0  0
    3.0130   -9.0820   38.2440 S   0  0  0  0  0  0  0  0  0  0  0  0
    2.1190   -8.6300   39.6240 C   0  0  0  0  0  0  0  0  0  0  0  0
    1.1000   -7.7620   39.3510 C   0  0  0  0  0  0  0  0  0  0  0  0
    1.0420   -7.4540   37.9480 C   0  0  0  0  0  0  0  0  0  0  0  0
    0.1560   -6.6250   37.3090 N   0  0  0  0  0  0  0  0  0  0  0  0
    0.2660   -6.4890   36.0170 C   0  0  0  0  0  0  0  0  0  0  0  0
    1.1990   -7.1230   35.2490 N   0  0  0  0  0  0  0  0  0  0  0  0
   -0.8560   -5.3960   35.2530 S   0  0  0  0  0  0  0  0  0  0  0  0
   -0.4930   -5.5920   33.5470 C   0  0  0  0  0  0  0  0  0  0  0  0
   -0.9950   -6.7450   32.9410 N   0  0  0  0  0  0  0  0  0  0  0  0
   -1.6930   -7.8140   33.4210 C   0  0  0  0  0  0  0  0  0  0  0  0
   -2.0060   -8.6340   32.4630 N   0  0  0  0  0  0  0  0  0  0  0  0
   -1.4920   -8.1230   31.2840 N   0  0  0  0  0  0  0  0  0  0  0  0
   -0.8700   -6.9820   31.5800 C   0  0  0  0  0  0  0  0  0  0  0  0
   -0.1660   -6.0320   30.8030 C   0  0  0  0  0  0  0  0  0  0  0  0
    0.3410   -4.9130   31.4080 C   0  0  0  0  0  0  0  0  0  0  0  0
    0.1730   -4.6860   32.7920 C   0  0  0  0  0  0  0  0  0  0  0  0
  2  1  2  0
  2 10  1  0
 10  9  1  0
 11  9  1  0
 12 11  1  0
 12 20  2  0
 20 19  1  0
 19 18  2  0
 18 17  1  0
 17 16  2  0
 16 15  1  0
 15 14  2  0
 14 13  1  0
 13 12  1  0
 17 13  1  0
  9  8  2  0
  8  7  1  0
  7  6  1  0
  6  5  2  0
  5  4  1  0
  4  3  1  0
  3  2  1  0
  7  3  2  0
M  END
>  <id>  (166) 
166

>  <inchikey>  (166) 
NCWBPSWMAZWHHP-UHFFFAOYSA-N

>  <alias>  (166) 
B0938a

>  <smiles>  (166) 
O=c1[nH]c(Sc2cccc3nncn23)nc2ccsc12

>  <path>  (166) 
/opt/xchem-fragalysis-2/maxwin/BulkDock/TARGETS/D68EV3C/aligned_files/B0938a/B0938a.pdb

>  <distance_score>  (166) 
None

>  <energy_score>  (166) 
None

>  <compound>  (166) 
NCWBPSWMAZWHHP-UHFFFAOYSA-N

>  <compound_id>  (166) 
130

>  <target>  (166) 
D68EV3C

>  <tags>  (166) 
['BAD count', '[Other] upload_1 2025-02-11', '[Other] iter1_frags', 'hits', 'MEDIOCRE count', 'Main status', 'GOOD count']

>  <inspirations>  (166) 
None

>  <subsites>  (166) 
None

>  <reference>  (166) 


>  <observation_longname>  (166) 
D68EV3CPROB-x0938_A_308_v1

>  <ConformerSites alias>  (166) 
1a - 7gp9/A/201

>  <CanonSites alias>  (166) 
1 - 7gp9/A/201/1

>  <CrystalformSites alias>  (166) 
F1e - 0436/B/301

>  <Quatassemblies alias>  (166) 
A1 - monomer

>  <Crystalforms alias>  (166) 
F1 - D68_3C_PROB

>  <ConformerSites upload name>  (166) 
1a - 7gp9/A/201

>  <CanonSites upload name>  (166) 
1 - 7gp9/A/201/1

>  <CrystalformSites upload name>  (166) 
F1e - D68EV3CPROB-x0436/B/301/1

>  <Quatassemblies upload name>  (166) 
A1 - monomer

>  <Crystalforms upload name>  (166) 
F1 - D68_3C_PROB

>  <ConformerSites short tag>  (166) 
1a - 7gp9/A/201

>  <CanonSites short tag>  (166) 
1 - 7gp9/A/201/1

>  <CrystalformSites short tag>  (166) 
F1e - 0436/B/301

>  <Quatassemblies short tag>  (166) 
A1 - monomer

>  <Crystalforms short tag>  (166) 
F1 - D68_3C_PROB

>  <Centroid res>  (166) 
7gp9/A/163/A_v1

>  <Experiment code>  (166) 
D68EV3CPROB-x0938

>  <Pose>  (166) 
B0938a

$$$$
B0938b
     RDKit          3D

 20 23  0  0  0  0  0  0  0  0999 V2000
    3.1570   -8.9100   35.1340 O   0  0  0  0  0  0  0  0  0  0  0  0
    2.2990   -8.3310   35.7960 C   0  0  0  0  0  0  0  0  0  0  0  0
    2.0370   -8.5020   37.1970 C   0  0  0  0  0  0  0  0  0  0  0  0
    2.9970   -9.4350   38.2730 S   0  0  0  0  0  0  0  0  0  0  0  0
    1.9850   -9.0400   39.5890 C   0  0  0  0  0  0  0  0  0  0  0  0
    0.9460   -8.2240   39.2470 C   0  0  0  0  0  0  0  0  0  0  0  0
    0.9810   -7.8950   37.8410 C   0  0  0  0  0  0  0  0  0  0  0  0
    0.1500   -7.0430   37.1430 N   0  0  0  0  0  0  0  0  0  0  0  0
    0.4270   -6.8220   35.8870 C   0  0  0  0  0  0  0  0  0  0  0  0
    1.4310   -7.4440   35.1970 N   0  0  0  0  0  0  0  0  0  0  0  0
   -0.4160   -5.5120   35.1040 S   0  0  0  0  0  0  0  0  0  0  0  0
   -0.1560   -5.7100   33.3870 C   0  0  0  0  0  0  0  0  0  0  0  0
   -0.8100   -6.7830   32.7910 N   0  0  0  0  0  0  0  0  0  0  0  0
   -1.5740   -7.8050   33.2760 C   0  0  0  0  0  0  0  0  0  0  0  0
   -1.9870   -8.5760   32.3110 N   0  0  0  0  0  0  0  0  0  0  0  0
   -1.4800   -8.0640   31.1160 N   0  0  0  0  0  0  0  0  0  0  0  0
   -0.7700   -6.9810   31.4160 C   0  0  0  0  0  0  0  0  0  0  0  0
   -0.0260   -6.0670   30.6260 C   0  0  0  0  0  0  0  0  0  0  0  0
    0.6280   -5.0290   31.2270 C   0  0  0  0  0  0  0  0  0  0  0  0
    0.5660   -4.8500   32.6250 C   0  0  0  0  0  0  0  0  0  0  0  0
  2  1  2  0
  2 10  1  0
 10  9  1  0
 11  9  1  0
 12 11  1  0
 12 20  2  0
 20 19  1  0
 19 18  2  0
 18 17  1  0
 17 16  2  0
 16 15  1  0
 15 14  2  0
 14 13  1  0
 13 12  1  0
 17 13  1  0
  9  8  2  0
  8  7  1  0
  7  6  1  0
  6  5  2  0
  5  4  1  0
  4  3  1  0
  3  2  1  0
  7  3  2  0
M  END
>  <id>  (167) 
167

>  <inchikey>  (167) 
NCWBPSWMAZWHHP-UHFFFAOYSA-N

>  <alias>  (167) 
B0938b

>  <smiles>  (167) 
O=c1[nH]c(Sc2cccc3nncn23)nc2ccsc12

>  <path>  (167) 
/opt/xchem-fragalysis-2/maxwin/BulkDock/TARGETS/D68EV3C/aligned_files/B0938b/B0938b.pdb

>  <distance_score>  (167) 
None

>  <energy_score>  (167) 
None

>  <compound>  (167) 
NCWBPSWMAZWHHP-UHFFFAOYSA-N

>  <compound_id>  (167) 
130

>  <target>  (167) 
D68EV3C

>  <tags>  (167) 
['BAD count', '[Other] upload_1 2025-02-11', 'hits', 'MEDIOCRE count', 'Main status', 'GOOD count']

>  <inspirations>  (167) 
None

>  <subsites>  (167) 
None

>  <reference>  (167) 


>  <observation_longname>  (167) 
D68EV3CPROB-x0938_A_401_v1

>  <ConformerSites alias>  (167) 
1a - 7gp9/A/201

>  <CanonSites alias>  (167) 
1 - 7gp9/A/201/1

>  <CrystalformSites alias>  (167) 
F1f - 0446/A/209

>  <Quatassemblies alias>  (167) 
A1 - monomer

>  <Crystalforms alias>  (167) 
F1 - D68_3C_PROB

>  <ConformerSites upload name>  (167) 
1a - 7gp9/A/201

>  <CanonSites upload name>  (167) 
1 - 7gp9/A/201/1

>  <CrystalformSites upload name>  (167) 
F1f - D68EV3CPROB-x0446/A/209/1

>  <Quatassemblies upload name>  (167) 
A1 - monomer

>  <Crystalforms upload name>  (167) 
F1 - D68_3C_PROB

>  <ConformerSites short tag>  (167) 
1a - 7gp9/A/201

>  <CanonSites short tag>  (167) 
1 - 7gp9/A/201/1

>  <CrystalformSites short tag>  (167) 
F1f - 0446/A/209

>  <Quatassemblies short tag>  (167) 
A1 - monomer

>  <Crystalforms short tag>  (167) 
F1 - D68_3C_PROB

>  <Centroid res>  (167) 
7gp9/A/163/A_v1

>  <Experiment code>  (167) 
D68EV3CPROB-x0938

>  <Pose>  (167) 
B0938a

$$$$
B1020a
     RDKit          3D

 18 20  0  0  0  0  0  0  0  0999 V2000
    2.0780   -6.2400   36.4020 O   0  0  0  0  0  0  0  0  0  0  0  0
    0.6680   -6.3230   36.5450 S   0  0  0  0  0  0  0  0  0  0  0  0
    0.0410   -7.3940   37.2400 O   0  0  0  0  0  0  0  0  0  0  0  0
    0.0060   -6.2800   35.0920 N   0  0  0  0  0  0  0  0  0  0  0  0
   -1.1330   -7.1170   34.6590 C   0  0  0  0  0  0  0  0  0  0  0  0
   -1.1180   -7.3780   33.1870 C   0  0  0  0  0  0  0  0  0  0  0  0
   -1.8880   -8.1640   32.4110 N   0  0  0  0  0  0  0  0  0  0  0  0
   -1.5200   -8.0470   31.1220 N   0  0  0  0  0  0  0  0  0  0  0  0
   -0.5190   -7.1920   31.0800 N   0  0  0  0  0  0  0  0  0  0  0  0
   -0.2480   -6.7770   32.3460 C   0  0  0  0  0  0  0  0  0  0  0  0
    0.8470   -5.8700   32.8160 C   0  0  0  0  0  0  0  0  0  0  0  0
    0.4380   -5.2370   34.1400 C   0  0  0  0  0  0  0  0  0  0  0  0
    0.1430   -4.9380   37.1470 N   0  0  0  0  0  0  0  0  0  0  0  0
   -1.2380   -4.9530   37.6610 C   0  0  0  0  0  0  0  0  0  0  0  0
   -1.7630   -3.5340   37.7390 C   0  0  0  0  0  0  0  0  0  0  0  0
   -0.7520   -2.5970   38.2570 N   0  0  0  0  0  0  0  0  0  0  0  0
    0.3140   -3.3090   38.9720 C   0  0  0  0  0  0  0  0  0  0  0  0
    1.0820   -4.2270   38.0380 C   0  0  0  0  0  0  0  0  0  0  0  0
  3  2  2  0
  2  1  2  0
 13  2  1  0
 13 18  1  0
 18 17  1  0
 17 16  1  0
 16 15  1  0
 15 14  1  0
 14 13  1  0
  4  2  1  0
  4 12  1  0
 12 11  1  0
 11 10  1  0
 10  9  1  0
  9  8  2  0
  8  7  1  0
  7  6  1  0
 10  6  2  0
  6  5  1  0
  5  4  1  0
M  END
>  <id>  (168) 
168

>  <inchikey>  (168) 
RMTPRUDWXABPBE-UHFFFAOYSA-N

>  <alias>  (168) 
B1020a

>  <smiles>  (168) 
O=S(=O)(N1CCNCC1)N1CCc2nn[nH]c2C1

>  <path>  (168) 
/opt/xchem-fragalysis-2/maxwin/BulkDock/TARGETS/D68EV3C/aligned_files/B1020a/B1020a.pdb

>  <distance_score>  (168) 
None

>  <energy_score>  (168) 
None

>  <compound>  (168) 
RMTPRUDWXABPBE-UHFFFAOYSA-N

>  <compound_id>  (168) 
131

>  <target>  (168) 
D68EV3C

>  <tags>  (168) 
['BAD count', '[Other] upload_1 2025-02-11', '[Other] iter1_frags', 'hits', 'MEDIOCRE count', 'Main status', 'GOOD count']

>  <inspirations>  (168) 
None

>  <subsites>  (168) 
None

>  <reference>  (168) 


>  <observation_longname>  (168) 
D68EV3CPROB-x1020_A_308_v1

>  <ConformerSites alias>  (168) 
1a - 7gp9/A/201

>  <CanonSites alias>  (168) 
1 - 7gp9/A/201/1

>  <CrystalformSites alias>  (168) 
F1h - 1020/A/308

>  <Quatassemblies alias>  (168) 
A1 - monomer

>  <Crystalforms alias>  (168) 
F1 - D68_3C_PROB

>  <ConformerSites upload name>  (168) 
1a - 7gp9/A/201

>  <CanonSites upload name>  (168) 
1 - 7gp9/A/201/1

>  <CrystalformSites upload name>  (168) 
F1h - D68EV3CPROB-x1020/A/308/1

>  <Quatassemblies upload name>  (168) 
A1 - monomer

>  <Crystalforms upload name>  (168) 
F1 - D68_3C_PROB

>  <ConformerSites short tag>  (168) 
1a - 7gp9/A/201

>  <CanonSites short tag>  (168) 
1 - 7gp9/A/201/1

>  <CrystalformSites short tag>  (168) 
F1h - 1020/A/308

>  <Quatassemblies short tag>  (168) 
A1 - monomer

>  <Crystalforms short tag>  (168) 
F1 - D68_3C_PROB

>  <Centroid res>  (168) 
7gp9/A/163/A_v1

>  <Experiment code>  (168) 
D68EV3CPROB-x1020

>  <Pose>  (168) 
B1020a

$$$$
B1033a
     RDKit          3D

 19 21  0  0  0  0  0  0  0  0999 V2000
   -9.8790    1.1550    9.4720 O   0  0  0  0  0  0  0  0  0  0  0  0
  -10.6860   -0.0110    9.3140 S   0  0  0  0  0  0  0  0  0  0  0  0
  -11.6900   -0.3090   10.2820 O   0  0  0  0  0  0  0  0  0  0  0  0
  -11.2340   -0.1310    7.7750 N   0  0  0  0  0  0  0  0  0  0  0  0
  -11.2860    1.0740    6.9250 C   0  0  0  0  0  0  0  0  0  0  0  0
  -11.1760    0.6640    5.4730 C   0  0  0  0  0  0  0  0  0  0  0  0
  -12.1880   -0.3430    5.1260 N   0  0  0  0  0  0  0  0  0  0  0  0
  -13.0880   -0.6250    6.2570 C   0  0  0  0  0  0  0  0  0  0  0  0
  -12.3210   -1.0850    7.4830 C   0  0  0  0  0  0  0  0  0  0  0  0
   -9.6570   -1.2550    9.3560 N   0  0  0  0  0  0  0  0  0  0  0  0
   -8.4680   -1.3850    8.5700 C   0  0  0  0  0  0  0  0  0  0  0  0
   -7.4000   -0.4980    8.7170 C   0  0  0  0  0  0  0  0  0  0  0  0
   -6.2450   -0.7350    7.9960 C   0  0  0  0  0  0  0  0  0  0  0  0
   -5.0560   -0.0510    8.1460 O   0  0  0  0  0  0  0  0  0  0  0  0
   -4.0340   -0.8150    7.4490 C   0  0  0  0  0  0  0  0  0  0  0  0
   -4.7470   -1.7780    6.5150 C   0  0  0  0  0  0  0  0  0  0  0  0
   -6.1300   -1.7840    7.1050 C   0  0  0  0  0  0  0  0  0  0  0  0
   -7.2080   -2.6450    6.9450 C   0  0  0  0  0  0  0  0  0  0  0  0
   -8.3660   -2.4550    7.6830 C   0  0  0  0  0  0  0  0  0  0  0  0
  3  2  2  0
  2  1  2  0
 10  2  1  0
 11 10  1  0
 11 19  2  0
 19 18  1  0
 18 17  2  0
 17 13  1  0
 13 12  2  0
 12 11  1  0
 14 13  1  0
 15 14  1  0
 16 15  1  0
 17 16  1  0
  4  2  1  0
  4  9  1  0
  9  8  1  0
  8  7  1  0
  7  6  1  0
  6  5  1  0
  5  4  1  0
M  END
>  <id>  (169) 
169

>  <inchikey>  (169) 
WNRHSBGDKHXNGM-UHFFFAOYSA-N

>  <alias>  (169) 
B1033a

>  <smiles>  (169) 
O=S(=O)(Nc1ccc2c(c1)OCC2)N1CCNCC1

>  <path>  (169) 
/opt/xchem-fragalysis-2/maxwin/BulkDock/TARGETS/D68EV3C/aligned_files/B1033a/B1033a_hippo.pdb

>  <distance_score>  (169) 
None

>  <energy_score>  (169) 
None

>  <compound>  (169) 
WNRHSBGDKHXNGM-UHFFFAOYSA-N

>  <compound_id>  (169) 
132

>  <target>  (169) 
D68EV3C

>  <tags>  (169) 
['BAD count', '[Other] upload_1 2025-02-11', 'hits', 'MEDIOCRE count', 'Main status', 'GOOD count']

>  <inspirations>  (169) 
None

>  <subsites>  (169) 
None

>  <reference>  (169) 


>  <observation_longname>  (169) 
D68EV3CPROB-x1033_A_308_v1

>  <ConformerSites alias>  (169) 
3a - 7gpw/B/202

>  <CanonSites alias>  (169) 
3 - 7gpw/B/202/1

>  <CrystalformSites alias>  (169) 
F1o - 0426/A/209

>  <Quatassemblies alias>  (169) 
A1 - monomer

>  <Crystalforms alias>  (169) 
F1 - D68_3C_PROB

>  <ConformerSites upload name>  (169) 
3a - 7gpw/B/202

>  <CanonSites upload name>  (169) 
3 - 7gpw/B/202/1

>  <CrystalformSites upload name>  (169) 
F1o - D68EV3CPROB-x0426/A/209/1

>  <Quatassemblies upload name>  (169) 
A1 - monomer

>  <Crystalforms upload name>  (169) 
F1 - D68_3C_PROB

>  <ConformerSites short tag>  (169) 
3a - 7gpw/B/202

>  <CanonSites short tag>  (169) 
3 - 7gpw/B/202/1

>  <CrystalformSites short tag>  (169) 
F1o - 0426/A/209

>  <Quatassemblies short tag>  (169) 
A1 - monomer

>  <Crystalforms short tag>  (169) 
F1 - D68_3C_PROB

>  <Centroid res>  (169) 
7gpw/B/74/B_v1

>  <Experiment code>  (169) 
D68EV3CPROB-x1033

>  <Pose>  (169) 
B1033a

$$$$
B1033b
     RDKit          3D

 19 21  0  0  0  0  0  0  0  0999 V2000
  -21.9900   -3.6680   19.0520 O   0  0  0  0  0  0  0  0  0  0  0  0
  -22.6320   -3.0330   17.9470 S   0  0  0  0  0  0  0  0  0  0  0  0
  -22.1910   -3.3140   16.6210 O   0  0  0  0  0  0  0  0  0  0  0  0
  -22.5880   -1.4350   18.2330 N   0  0  0  0  0  0  0  0  0  0  0  0
  -22.8200   -0.4850   17.1280 C   0  0  0  0  0  0  0  0  0  0  0  0
  -22.2080    0.8520   17.4730 C   0  0  0  0  0  0  0  0  0  0  0  0
  -22.6820    1.3540   18.7680 N   0  0  0  0  0  0  0  0  0  0  0  0
  -23.6500    0.4430   19.3850 C   0  0  0  0  0  0  0  0  0  0  0  0
  -23.0880   -0.9530   19.5350 C   0  0  0  0  0  0  0  0  0  0  0  0
  -24.1690   -3.5690   18.0870 N   0  0  0  0  0  0  0  0  0  0  0  0
  -25.2100   -3.4960   17.1150 C   0  0  0  0  0  0  0  0  0  0  0  0
  -25.1600   -2.5850   16.0600 C   0  0  0  0  0  0  0  0  0  0  0  0
  -26.2400   -2.5010   15.2090 C   0  0  0  0  0  0  0  0  0  0  0  0
  -26.3490   -1.6370   14.1400 O   0  0  0  0  0  0  0  0  0  0  0  0
  -27.7020   -1.7310   13.6220 C   0  0  0  0  0  0  0  0  0  0  0  0
  -28.3700   -2.9320   14.2950 C   0  0  0  0  0  0  0  0  0  0  0  0
  -27.3560   -3.3010   15.3470 C   0  0  0  0  0  0  0  0  0  0  0  0
  -27.3840   -4.2310   16.3780 C   0  0  0  0  0  0  0  0  0  0  0  0
  -26.3210   -4.3250   17.2620 C   0  0  0  0  0  0  0  0  0  0  0  0
  3  2  2  0
  2  1  2  0
 10  2  1  0
 11 10  1  0
 11 19  2  0
 19 18  1  0
 18 17  2  0
 17 13  1  0
 13 12  2  0
 12 11  1  0
 14 13  1  0
 15 14  1  0
 16 15  1  0
 17 16  1  0
  4  2  1  0
  4  9  1  0
  9  8  1  0
  8  7  1  0
  7  6  1  0
  6  5  1  0
  5  4  1  0
M  END
>  <id>  (170) 
170

>  <inchikey>  (170) 
WNRHSBGDKHXNGM-UHFFFAOYSA-N

>  <alias>  (170) 
B1033b

>  <smiles>  (170) 
O=S(=O)(Nc1ccc2c(c1)OCC2)N1CCNCC1

>  <path>  (170) 
/opt/xchem-fragalysis-2/maxwin/BulkDock/TARGETS/D68EV3C/aligned_files/B1033b/B1033b.pdb

>  <distance_score>  (170) 
None

>  <energy_score>  (170) 
None

>  <compound>  (170) 
WNRHSBGDKHXNGM-UHFFFAOYSA-N

>  <compound_id>  (170) 
132

>  <target>  (170) 
D68EV3C

>  <tags>  (170) 
['BAD count', '[Other] upload_1 2025-02-11', 'hits', 'MEDIOCRE count', 'Main status', 'GOOD count']

>  <inspirations>  (170) 
None

>  <subsites>  (170) 
None

>  <reference>  (170) 


>  <observation_longname>  (170) 
D68EV3CPROB-x1033_A_309_v1

>  <ConformerSites alias>  (170) 
6a - B0798/A/308

>  <CanonSites alias>  (170) 
6 - B0798/A/308/1

>  <CrystalformSites alias>  (170) 
F1v - B0469/A/209

>  <Quatassemblies alias>  (170) 
A1 - monomer

>  <Crystalforms alias>  (170) 
F1 - D68_3C_PROB

>  <ConformerSites upload name>  (170) 
6a - D68EV3CPROB-x0798/A/308

>  <CanonSites upload name>  (170) 
6 - D68EV3CPROB-x0798/A/308/1

>  <CrystalformSites upload name>  (170) 
F1v - D68EV3CPROB-x0469/A/209/1

>  <Quatassemblies upload name>  (170) 
A1 - monomer

>  <Crystalforms upload name>  (170) 
F1 - D68_3C_PROB

>  <ConformerSites short tag>  (170) 
6a - B0798/A/308

>  <CanonSites short tag>  (170) 
6 - B0798/A/308/1

>  <CrystalformSites short tag>  (170) 
F1v - B0469/A/209

>  <Quatassemblies short tag>  (170) 
A1 - monomer

>  <Crystalforms short tag>  (170) 
F1 - D68_3C_PROB

>  <Centroid res>  (170) 
D68EV3CPROB-x0798/A/175/A_v1

>  <Experiment code>  (170) 
D68EV3CPROB-x1033

>  <Pose>  (170) 
B1033b

$$$$
B1035a
     RDKit          3D

 15 16  0  0  0  0  0  0  0  0999 V2000
  -15.0510  -10.1910   33.8460 F   0  0  0  0  0  0  0  0  0  0  0  0
  -14.0820   -9.7480   34.9830 S   0  0  0  0  0  0  0  0  0  0  0  0
  -13.7170   -8.4270   34.7150 O   0  0  0  0  0  0  0  0  0  0  0  0
  -13.2000  -10.8090   35.2050 O   0  0  0  0  0  0  0  0  0  0  0  0
  -15.1450   -9.7210   36.1470 O   0  0  0  0  0  0  0  0  0  0  0  0
  -14.8220   -9.5520   37.5190 C   0  0  0  0  0  0  0  0  0  0  0  0
  -14.7790  -10.6520   38.3610 C   0  0  0  0  0  0  0  0  0  0  0  0
  -14.5220   -8.2820   37.9940 C   0  0  0  0  0  0  0  0  0  0  0  0
  -14.1670   -8.1110   39.3220 C   0  0  0  0  0  0  0  0  0  0  0  0
  -14.1170   -9.2140   40.1710 C   0  0  0  0  0  0  0  0  0  0  0  0
  -13.8010   -9.3180   41.6070 C   0  0  0  0  0  0  0  0  0  0  0  0
  -13.5090   -8.4150   42.3880 O   0  0  0  0  0  0  0  0  0  0  0  0
  -14.4210  -10.4790   39.6940 C   0  0  0  0  0  0  0  0  0  0  0  0
  -14.2760  -11.4790   40.8030 C   0  0  0  0  0  0  0  0  0  0  0  0
  -13.8980  -10.6220   41.9200 N   0  0  0  0  0  0  0  0  0  0  0  0
 12 11  2  0
 11 15  1  0
 15 14  1  0
 14 13  1  0
 13  7  1  0
  7  6  2  0
  6  5  1  0
  5  2  1  0
  3  2  2  0
  4  2  2  0
  2  1  1  0
  8  6  1  0
  9  8  2  0
 10  9  1  0
 13 10  2  0
 11 10  1  0
M  END
>  <id>  (171) 
171

>  <inchikey>  (171) 
PJYDKOCAWRJPEJ-UHFFFAOYSA-N

>  <alias>  (171) 
B1035a

>  <smiles>  (171) 
O=C1NCc2cc(OS(=O)(=O)F)ccc21

>  <path>  (171) 
/opt/xchem-fragalysis-2/maxwin/BulkDock/TARGETS/D68EV3C/aligned_files/B1035a/B1035a.pdb

>  <distance_score>  (171) 
None

>  <energy_score>  (171) 
None

>  <compound>  (171) 
PJYDKOCAWRJPEJ-UHFFFAOYSA-N

>  <compound_id>  (171) 
133

>  <target>  (171) 
D68EV3C

>  <tags>  (171) 
['BAD count', '[Other] upload_1 2025-02-11', 'hits', 'MEDIOCRE count', 'Main status', 'GOOD count']

>  <inspirations>  (171) 
None

>  <subsites>  (171) 
None

>  <reference>  (171) 


>  <observation_longname>  (171) 
D68EV3CPROB-x1035_A_308_v1

>  <ConformerSites alias>  (171) 
12a - B1035/A/308

>  <CanonSites alias>  (171) 
12 - B1035/A/308/1

>  <CrystalformSites alias>  (171) 
F1ai - B1035/A/308

>  <Quatassemblies alias>  (171) 
A1 - monomer

>  <Crystalforms alias>  (171) 
F1 - D68_3C_PROB

>  <ConformerSites upload name>  (171) 
12a - D68EV3CPROB-x1035/A/308

>  <CanonSites upload name>  (171) 
12 - D68EV3CPROB-x1035/A/308/1

>  <CrystalformSites upload name>  (171) 
F1ai - D68EV3CPROB-x1035/A/308/1

>  <Quatassemblies upload name>  (171) 
A1 - monomer

>  <Crystalforms upload name>  (171) 
F1 - D68_3C_PROB

>  <ConformerSites short tag>  (171) 
12a - B1035/A/308

>  <CanonSites short tag>  (171) 
12 - B1035/A/308/1

>  <CrystalformSites short tag>  (171) 
F1ai - B1035/A/308

>  <Quatassemblies short tag>  (171) 
A1 - monomer

>  <Crystalforms short tag>  (171) 
F1 - D68_3C_PROB

>  <Centroid res>  (171) 
D68EV3CPROB-x1035/B/138/A_v1

>  <Experiment code>  (171) 
D68EV3CPROB-x1035

>  <Pose>  (171) 
B1035a

$$$$
B1081a
     RDKit          3D

 19 20  0  0  0  0  0  0  0  0999 V2000
  -23.1640  -13.6310    8.7090 O   0  0  0  0  0  0  0  0  0  0  0  0
  -22.5410  -14.6850    8.8140 C   0  0  0  0  0  0  0  0  0  0  0  0
  -22.6170  -15.6520    7.8950 N   0  0  0  0  0  0  0  0  0  0  0  0
  -21.9540  -16.9540    7.9610 C   0  0  0  0  0  0  0  0  0  0  0  0
  -20.4430  -16.9300    7.8130 C   0  0  0  0  0  0  0  0  0  0  0  0
  -19.7750  -15.7720    8.5570 C   0  0  0  0  0  0  0  0  0  0  0  0
  -20.3950  -15.4690    9.9010 C   0  0  0  0  0  0  0  0  0  0  0  0
  -19.6740  -15.7460   11.0570 C   0  0  0  0  0  0  0  0  0  0  0  0
  -21.6810  -14.9170   10.0090 C   0  0  0  0  0  0  0  0  0  0  0  0
  -22.2090  -14.6230   11.2710 C   0  0  0  0  0  0  0  0  0  0  0  0
  -21.4750  -14.8940   12.4120 C   0  0  0  0  0  0  0  0  0  0  0  0
  -22.1070  -14.8980   13.6770 O   0  0  0  0  0  0  0  0  0  0  0  0
  -21.9900  -13.7290   14.7240 S   0  0  0  0  0  0  0  0  0  0  0  0
  -22.9290  -12.7140   13.9760 F   0  0  0  0  0  0  0  0  0  0  0  0
  -20.6980  -13.1970   14.6710 O   0  0  0  0  0  0  0  0  0  0  0  0
  -22.6470  -14.0880   15.9030 O   0  0  0  0  0  0  0  0  0  0  0  0
  -20.1990  -15.4710   12.3050 C   0  0  0  0  0  0  0  0  0  0  0  0
  -19.5840  -15.7600   13.4910 O   0  0  0  0  0  0  0  0  0  0  0  0
  -18.1990  -15.4440   13.6130 C   0  0  0  0  0  0  0  0  0  0  0  0
 19 18  1  0
 18 17  1  0
 17  8  2  0
  8  7  1  0
  7  9  2  0
 10  9  1  0
 11 10  2  0
 17 11  1  0
 12 11  1  0
 13 12  1  0
 16 13  2  0
 15 13  2  0
 14 13  1  0
  9  2  1  0
  2  1  2  0
  3  2  1  0
  4  3  1  0
  5  4  1  0
  6  5  1  0
  7  6  1  0
M  END
>  <id>  (172) 
172

>  <inchikey>  (172) 
QUQCEEPROBXZFG-UHFFFAOYSA-N

>  <alias>  (172) 
B1081a

>  <smiles>  (172) 
COc1cc2c(cc1OS(=O)(=O)F)C(=O)NCCC2

>  <path>  (172) 
/opt/xchem-fragalysis-2/maxwin/BulkDock/TARGETS/D68EV3C/aligned_files/B1081a/B1081a.pdb

>  <distance_score>  (172) 
None

>  <energy_score>  (172) 
None

>  <compound>  (172) 
QUQCEEPROBXZFG-UHFFFAOYSA-N

>  <compound_id>  (172) 
134

>  <target>  (172) 
D68EV3C

>  <tags>  (172) 
['BAD count', '[Other] upload_1 2025-02-11', 'hits', 'MEDIOCRE count', 'Main status', 'GOOD count']

>  <inspirations>  (172) 
None

>  <subsites>  (172) 
None

>  <reference>  (172) 


>  <observation_longname>  (172) 
D68EV3CPROB-x1081_A_308_v1

>  <ConformerSites alias>  (172) 
7a - B1081/A/308

>  <CanonSites alias>  (172) 
7 - B1081/A/308/1

>  <CrystalformSites alias>  (172) 
F1aa - B1081/A/308

>  <Quatassemblies alias>  (172) 
A1 - monomer

>  <Crystalforms alias>  (172) 
F1 - D68_3C_PROB

>  <ConformerSites upload name>  (172) 
7a - D68EV3CPROB-x1081/A/308

>  <CanonSites upload name>  (172) 
7 - D68EV3CPROB-x1081/A/308/1

>  <CrystalformSites upload name>  (172) 
F1aa - D68EV3CPROB-x1081/A/308/1

>  <Quatassemblies upload name>  (172) 
A1 - monomer

>  <Crystalforms upload name>  (172) 
F1 - D68_3C_PROB

>  <ConformerSites short tag>  (172) 
7a - B1081/A/308

>  <CanonSites short tag>  (172) 
7 - B1081/A/308/1

>  <CrystalformSites short tag>  (172) 
F1aa - B1081/A/308

>  <Quatassemblies short tag>  (172) 
A1 - monomer

>  <Crystalforms short tag>  (172) 
F1 - D68_3C_PROB

>  <Centroid res>  (172) 
D68EV3CPROB-x1081/B/91/A_v1

>  <Experiment code>  (172) 
D68EV3CPROB-x1081

>  <Pose>  (172) 
B1081a

$$$$
B1120a
     RDKit          3D

 17 18  0  0  0  0  0  0  0  0999 V2000
  -15.4780  -20.2370   33.2120 O   0  0  0  0  0  0  0  0  0  0  0  0
  -16.2960  -20.8970   32.2450 S   0  0  0  0  0  0  0  0  0  0  0  0
  -16.8590  -20.1520   31.1650 O   0  0  0  0  0  0  0  0  0  0  0  0
  -17.4580  -21.5670   33.1230 N   0  0  0  0  0  0  0  0  0  0  0  0
  -18.1320  -20.7450   34.1450 C   0  0  0  0  0  0  0  0  0  0  0  0
  -18.7530  -21.6560   35.1790 C   0  0  0  0  0  0  0  0  0  0  0  0
  -19.6640  -22.6000   34.5280 N   0  0  0  0  0  0  0  0  0  0  0  0
  -18.9370  -23.4240   33.5510 C   0  0  0  0  0  0  0  0  0  0  0  0
  -18.3740  -22.5290   32.4860 C   0  0  0  0  0  0  0  0  0  0  0  0
  -15.4990  -22.1630   31.6180 N   0  0  0  0  0  0  0  0  0  0  0  0
  -14.6320  -23.0090   32.4480 C   0  0  0  0  0  0  0  0  0  0  0  0
  -14.0350  -24.1410   31.6360 C   0  0  0  0  0  0  0  0  0  0  0  0
  -13.3080  -23.5820   30.4520 C   0  0  0  0  0  0  0  0  0  0  0  0
  -13.3810  -24.1670   29.2550 N   0  0  0  0  0  0  0  0  0  0  0  0
  -12.6100  -23.4070   28.4400 N   0  0  0  0  0  0  0  0  0  0  0  0
  -12.0650  -22.3770   29.0980 C   0  0  0  0  0  0  0  0  0  0  0  0
  -12.4930  -22.4490   30.3930 C   0  0  0  0  0  0  0  0  0  0  0  0
  3  2  2  0
  2  1  2  0
 10  2  1  0
 11 10  1  0
 12 11  1  0
 13 12  1  0
 13 17  1  0
 17 16  2  0
 16 15  1  0
 15 14  1  0
 14 13  2  0
  4  2  1  0
  4  9  1  0
  9  8  1  0
  8  7  1  0
  7  6  1  0
  6  5  1  0
  5  4  1  0
M  END
>  <id>  (173) 
173

>  <inchikey>  (173) 
OLFUYQLOYSNXOJ-UHFFFAOYSA-N

>  <alias>  (173) 
B1120a

>  <smiles>  (173) 
O=S(=O)(NCCc1cc[nH]n1)N1CCNCC1

>  <path>  (173) 
/opt/xchem-fragalysis-2/maxwin/BulkDock/TARGETS/D68EV3C/aligned_files/B1120a/B1120a.pdb

>  <distance_score>  (173) 
None

>  <energy_score>  (173) 
None

>  <compound>  (173) 
OLFUYQLOYSNXOJ-UHFFFAOYSA-N

>  <compound_id>  (173) 
135

>  <target>  (173) 
D68EV3C

>  <tags>  (173) 
['BAD count', '[Other] upload_1 2025-02-11', 'hits', 'MEDIOCRE count', 'Main status', 'GOOD count']

>  <inspirations>  (173) 
None

>  <subsites>  (173) 
None

>  <reference>  (173) 


>  <observation_longname>  (173) 
D68EV3CPROB-x1120_A_308_v1

>  <ConformerSites alias>  (173) 
5j - B1120/A/308

>  <CanonSites alias>  (173) 
5 - B1120/A/308/1

>  <CrystalformSites alias>  (173) 
F1u - B1120/A/308

>  <Quatassemblies alias>  (173) 
A1 - monomer

>  <Crystalforms alias>  (173) 
F1 - D68_3C_PROB

>  <ConformerSites upload name>  (173) 
5j - D68EV3CPROB-x1120/A/308

>  <CanonSites upload name>  (173) 
5 - D68EV3CPROB-x1120/A/308/1

>  <CrystalformSites upload name>  (173) 
F1u - D68EV3CPROB-x1120/A/308/1

>  <Quatassemblies upload name>  (173) 
A1 - monomer

>  <Crystalforms upload name>  (173) 
F1 - D68_3C_PROB

>  <ConformerSites short tag>  (173) 
5j - B1120/A/308

>  <CanonSites short tag>  (173) 
5 - B1120/A/308/1

>  <CrystalformSites short tag>  (173) 
F1u - B1120/A/308

>  <Quatassemblies short tag>  (173) 
A1 - monomer

>  <Crystalforms short tag>  (173) 
F1 - D68_3C_PROB

>  <Centroid res>  (173) 
D68EV3CPROB-x1120/B/115/A_v1

>  <Experiment code>  (173) 
D68EV3CPROB-x1120

>  <Pose>  (173) 
B1120a

$$$$
B1157a
     RDKit          3D

 15 16  0  0  0  0  0  0  0  0999 V2000
  -20.0750   -1.5280   15.9270 Cl  0  0  0  0  0  0  0  0  0  0  0  0
  -20.1710   -2.3620   17.4840 C   0  0  0  0  0  0  0  0  0  0  0  0
  -21.5710   -2.7000   17.9370 C   0  0  0  0  0  0  0  0  0  0  0  0
  -21.8690   -3.8680   18.1760 O   0  0  0  0  0  0  0  0  0  0  0  0
  -22.4250   -1.6900   18.0690 N   0  0  0  0  0  0  0  0  0  0  0  0
  -23.6380   -1.8040   18.8630 C   0  0  0  0  0  0  0  0  0  0  0  0
  -24.8120   -2.3240   18.0720 C   0  0  0  0  0  0  0  0  0  0  0  0
  -25.4280   -1.4280   17.2670 N   0  0  0  0  0  0  0  0  0  0  0  0
  -26.4710   -1.8890   16.5700 C   0  0  0  0  0  0  0  0  0  0  0  0
  -27.2480   -1.1580   15.7130 N   0  0  0  0  0  0  0  0  0  0  0  0
  -28.2290   -1.9830   15.2190 C   0  0  0  0  0  0  0  0  0  0  0  0
  -28.0980   -3.2340   15.7300 C   0  0  0  0  0  0  0  0  0  0  0  0
  -26.9780   -3.2110   16.6050 C   0  0  0  0  0  0  0  0  0  0  0  0
  -26.3090   -4.1030   17.4400 C   0  0  0  0  0  0  0  0  0  0  0  0
  -25.2210   -3.6640   18.1760 C   0  0  0  0  0  0  0  0  0  0  0  0
  4  3  2  0
  3  2  1  0
  2  1  1  0
  5  3  1  0
  6  5  1  0
  7  6  1  0
  7 15  2  0
 15 14  1  0
 14 13  2  0
 13 12  1  0
 12 11  2  0
 11 10  1  0
 10  9  1  0
 13  9  1  0
  9  8  2  0
  8  7  1  0
M  END
>  <id>  (174) 
174

>  <inchikey>  (174) 
HYEXAGWRPRSNAB-UHFFFAOYSA-N

>  <alias>  (174) 
B1157a

>  <smiles>  (174) 
O=C(CCl)NCc1ccc2cc[nH]c2n1

>  <path>  (174) 
/opt/xchem-fragalysis-2/maxwin/BulkDock/TARGETS/D68EV3C/aligned_files/B1157a/B1157a.pdb

>  <distance_score>  (174) 
None

>  <energy_score>  (174) 
None

>  <compound>  (174) 
HYEXAGWRPRSNAB-UHFFFAOYSA-N

>  <compound_id>  (174) 
136

>  <target>  (174) 
D68EV3C

>  <tags>  (174) 
['BAD count', '[Other] upload_1 2025-02-11', 'hits', 'MEDIOCRE count', 'Main status', 'GOOD count']

>  <inspirations>  (174) 
None

>  <subsites>  (174) 
None

>  <reference>  (174) 


>  <observation_longname>  (174) 
D68EV3CPROB-x1157_A_401_v1

>  <ConformerSites alias>  (174) 
6a - B0798/A/308

>  <CanonSites alias>  (174) 
6 - B0798/A/308/1

>  <CrystalformSites alias>  (174) 
F1v - B0469/A/209

>  <Quatassemblies alias>  (174) 
A1 - monomer

>  <Crystalforms alias>  (174) 
F1 - D68_3C_PROB

>  <ConformerSites upload name>  (174) 
6a - D68EV3CPROB-x0798/A/308

>  <CanonSites upload name>  (174) 
6 - D68EV3CPROB-x0798/A/308/1

>  <CrystalformSites upload name>  (174) 
F1v - D68EV3CPROB-x0469/A/209/1

>  <Quatassemblies upload name>  (174) 
A1 - monomer

>  <Crystalforms upload name>  (174) 
F1 - D68_3C_PROB

>  <ConformerSites short tag>  (174) 
6a - B0798/A/308

>  <CanonSites short tag>  (174) 
6 - B0798/A/308/1

>  <CrystalformSites short tag>  (174) 
F1v - B0469/A/209

>  <Quatassemblies short tag>  (174) 
A1 - monomer

>  <Crystalforms short tag>  (174) 
F1 - D68_3C_PROB

>  <Centroid res>  (174) 
D68EV3CPROB-x0798/A/175/A_v1

>  <Experiment code>  (174) 
D68EV3CPROB-x1157

>  <Pose>  (174) 
B1157a

$$$$
B1159c
     RDKit          3D

 20 22  0  0  0  0  0  0  0  0999 V2000
    0.0000    0.0000    0.0000 Cl  0  0  0  0  0  0  0  0  0  0  0  0
    1.4600   -5.6790   27.5040 C   0  0  2  0  0  0  0  0  0  0  0  0
    2.7060   -6.4660   27.1660 C   0  0  0  0  0  0  0  0  0  0  0  0
    2.7230   -7.6850   27.3280 O   0  0  0  0  0  0  0  0  0  0  0  0
    3.7450   -5.7690   26.6830 N   0  0  0  0  0  0  0  0  0  0  0  0
    5.0310   -6.3760   26.2950 C   0  0  0  0  0  0  0  0  0  0  0  0
    5.0170   -7.3720   25.1070 C   0  0  0  0  0  0  0  0  0  0  0  0
    6.2240   -6.6440   24.5170 C   0  0  0  0  0  0  0  0  0  0  0  0
    5.9110   -5.4490   25.4160 C   0  0  0  0  0  0  0  0  0  0  0  0
    5.8060   -6.9200   27.4780 C   0  0  0  0  0  0  0  0  0  0  0  0
    6.5970   -8.0520   27.5040 N   0  0  0  0  0  0  0  0  0  0  0  0
    7.0850   -8.0380   28.7480 C   0  0  0  0  0  0  0  0  0  0  0  0
    6.6450   -6.9700   29.4160 N   0  0  0  0  0  0  0  0  0  0  0  0
    5.8080   -6.2380   28.6460 N   0  0  0  0  0  0  0  0  0  0  0  0
    7.9550   -9.0330   29.3300 C   0  0  0  0  0  0  0  0  0  0  0  0
    8.5380  -10.3470   28.4190 S   0  0  0  0  0  0  0  0  0  0  0  0
    9.4440  -10.9340   29.7420 C   0  0  0  0  0  0  0  0  0  0  0  0
    9.3090  -10.1660   30.8410 C   0  0  0  0  0  0  0  0  0  0  0  0
    8.4530   -9.0640   30.6300 C   0  0  0  0  0  0  0  0  0  0  0  0
   -0.0730   -6.5560   27.0310 S   0  0  0  0  0  0  0  0  0  0  0  0
  4  3  2  0
  3  2  1  0
  2  1  1  0
  5  3  1  0
  6  5  1  0
 10  6  1  0
 10 14  2  0
 14 13  1  0
 13 12  1  0
 15 12  1  0
 15 19  2  0
 19 18  1  0
 18 17  2  0
 17 16  1  0
 16 15  1  0
 12 11  2  0
 11 10  1  0
  6  9  1  0
  9  8  1  0
  8  7  1  0
  7  6  1  0
  2 20  1  6
M  END
>  <id>  (175) 
175

>  <inchikey>  (175) 
QFCBIPAZJCSWKR-QMMMGPOBSA-N

>  <alias>  (175) 
B1159c

>  <smiles>  (175) 
O=C(NC1(c2n[nH]c(-c3cccs3)n2)CCC1)[C@H](S)Cl

>  <path>  (175) 
/opt/xchem-fragalysis-2/maxwin/BulkDock/TARGETS/D68EV3C/aligned_files/B1159c/B1159c.pdb

>  <distance_score>  (175) 
None

>  <energy_score>  (175) 
None

>  <compound>  (175) 
QFCBIPAZJCSWKR-UHFFFAOYSA-N

>  <compound_id>  (175) 
137

>  <target>  (175) 
D68EV3C

>  <tags>  (175) 
['BAD count', '[Other] upload_1 2025-02-11', 'hits', 'MEDIOCRE count', 'Main status', 'GOOD count']

>  <inspirations>  (175) 
None

>  <subsites>  (175) 
None

>  <reference>  (175) 


>  <observation_longname>  (175) 
D68EV3CPROB-x1159_B_301_v1

>  <ConformerSites alias>  (175) 
1a - 7gp9/A/201

>  <CanonSites alias>  (175) 
1 - 7gp9/A/201/1

>  <CrystalformSites alias>  (175) 
F1g - 0839/B/207

>  <Quatassemblies alias>  (175) 
A1 - monomer

>  <Crystalforms alias>  (175) 
F1 - D68_3C_PROB

>  <ConformerSites upload name>  (175) 
1a - 7gp9/A/201

>  <CanonSites upload name>  (175) 
1 - 7gp9/A/201/1

>  <CrystalformSites upload name>  (175) 
F1g - D68EV3CPROB-x0839/B/207/1

>  <Quatassemblies upload name>  (175) 
A1 - monomer

>  <Crystalforms upload name>  (175) 
F1 - D68_3C_PROB

>  <ConformerSites short tag>  (175) 
1a - 7gp9/A/201

>  <CanonSites short tag>  (175) 
1 - 7gp9/A/201/1

>  <CrystalformSites short tag>  (175) 
F1g - 0839/B/207

>  <Quatassemblies short tag>  (175) 
A1 - monomer

>  <Crystalforms short tag>  (175) 
F1 - D68_3C_PROB

>  <Centroid res>  (175) 
7gp9/A/163/A_v1

>  <Experiment code>  (175) 
D68EV3CPROB-x1159

>  <Pose>  (175) 
B1159c

$$$$
B1159b
     RDKit          3D

 19 21  0  0  0  0  0  0  0  0999 V2000
  -19.7550   -2.1950   21.1890 Cl  0  0  0  0  0  0  0  0  0  0  0  0
  -19.4070   -2.7780   19.5560 C   0  0  0  0  0  0  0  0  0  0  0  0
  -20.4720   -2.4750   18.5270 C   0  0  0  0  0  0  0  0  0  0  0  0
  -20.5740   -3.2120   17.5520 O   0  0  0  0  0  0  0  0  0  0  0  0
  -21.2610   -1.4100   18.7310 N   0  0  0  0  0  0  0  0  0  0  0  0
  -22.1500   -0.9230   17.6750 C   0  0  0  0  0  0  0  0  0  0  0  0
  -21.4310   -0.5780   16.3460 C   0  0  0  0  0  0  0  0  0  0  0  0
  -22.1470    0.7760   16.3360 C   0  0  0  0  0  0  0  0  0  0  0  0
  -22.5640    0.5650   17.7980 C   0  0  0  0  0  0  0  0  0  0  0  0
  -23.3080   -1.9190   17.5070 C   0  0  0  0  0  0  0  0  0  0  0  0
  -24.2770   -1.8540   16.5230 N   0  0  0  0  0  0  0  0  0  0  0  0
  -25.0330   -2.9330   16.7330 C   0  0  0  0  0  0  0  0  0  0  0  0
  -24.5720   -3.6290   17.7770 N   0  0  0  0  0  0  0  0  0  0  0  0
  -23.4780   -3.0170   18.3060 N   0  0  0  0  0  0  0  0  0  0  0  0
  -26.2170   -3.2780   15.9680 C   0  0  0  0  0  0  0  0  0  0  0  0
  -27.1780   -4.6140   16.4440 S   0  0  0  0  0  0  0  0  0  0  0  0
  -28.3140   -4.3210   15.1960 C   0  0  0  0  0  0  0  0  0  0  0  0
  -27.9890   -3.2580   14.4360 C   0  0  0  0  0  0  0  0  0  0  0  0
  -26.7710   -2.6350   14.8580 C   0  0  0  0  0  0  0  0  0  0  0  0
  4  3  2  0
  3  2  1  0
  2  1  1  0
  5  3  1  0
  6  5  1  0
 10  6  1  0
 10 14  2  0
 14 13  1  0
 13 12  1  0
 15 12  1  0
 15 19  2  0
 19 18  1  0
 18 17  2  0
 17 16  1  0
 16 15  1  0
 12 11  2  0
 11 10  1  0
  6  9  1  0
  9  8  1  0
  8  7  1  0
  7  6  1  0
M  END
>  <id>  (176) 
176

>  <inchikey>  (176) 
PUOLCIOKQSWQPF-UHFFFAOYSA-N

>  <alias>  (176) 
B1159b

>  <smiles>  (176) 
O=C(CCl)NC1(c2n[nH]c(-c3cccs3)n2)CCC1

>  <path>  (176) 
/opt/xchem-fragalysis-2/maxwin/BulkDock/TARGETS/D68EV3C/aligned_files/B1159b/B1159b_hippo.pdb

>  <distance_score>  (176) 
None

>  <energy_score>  (176) 
None

>  <compound>  (176) 
PUOLCIOKQSWQPF-UHFFFAOYSA-N

>  <compound_id>  (176) 
138

>  <target>  (176) 
D68EV3C

>  <tags>  (176) 
['BAD count', '[Other] upload_1 2025-02-11', 'hits', 'MEDIOCRE count', 'Main status', 'GOOD count']

>  <inspirations>  (176) 
None

>  <subsites>  (176) 
None

>  <reference>  (176) 


>  <observation_longname>  (176) 
D68EV3CPROB-x1159_A_308_v1

>  <ConformerSites alias>  (176) 
6a - B0798/A/308

>  <CanonSites alias>  (176) 
6 - B0798/A/308/1

>  <CrystalformSites alias>  (176) 
F1w - B1159/A/308

>  <Quatassemblies alias>  (176) 
A1 - monomer

>  <Crystalforms alias>  (176) 
F1 - D68_3C_PROB

>  <ConformerSites upload name>  (176) 
6a - D68EV3CPROB-x0798/A/308

>  <CanonSites upload name>  (176) 
6 - D68EV3CPROB-x0798/A/308/1

>  <CrystalformSites upload name>  (176) 
F1w - D68EV3CPROB-x1159/A/308/1

>  <Quatassemblies upload name>  (176) 
A1 - monomer

>  <Crystalforms upload name>  (176) 
F1 - D68_3C_PROB

>  <ConformerSites short tag>  (176) 
6a - B0798/A/308

>  <CanonSites short tag>  (176) 
6 - B0798/A/308/1

>  <CrystalformSites short tag>  (176) 
F1w - B1159/A/308

>  <Quatassemblies short tag>  (176) 
A1 - monomer

>  <Crystalforms short tag>  (176) 
F1 - D68_3C_PROB

>  <Centroid res>  (176) 
D68EV3CPROB-x0798/A/175/A_v1

>  <Experiment code>  (176) 
D68EV3CPROB-x1159

>  <Pose>  (176) 
B1159b

$$$$
B1169a
     RDKit          3D

 14 15  0  0  0  0  0  0  0  0999 V2000
    0.0000    0.0000    0.0000 Cl  0  0  0  0  0  0  0  0  0  0  0  0
   -0.7610   -5.2580   25.3520 C   0  0  2  0  0  0  0  0  0  0  0  0
   -0.2870   -5.3960   26.7810 C   0  0  0  0  0  0  0  0  0  0  0  0
   -0.7310   -6.2920   27.4940 O   0  0  0  0  0  0  0  0  0  0  0  0
    0.6240   -4.4920   27.2220 N   0  0  0  0  0  0  0  0  0  0  0  0
    1.2530   -3.4380   26.4170 C   0  0  0  0  0  0  0  0  0  0  0  0
    2.7440   -3.4590   26.6290 C   0  0  0  0  0  0  0  0  0  0  0  0
    3.7130   -2.8520   25.7810 C   0  0  0  0  0  0  0  0  0  0  0  0
    4.9890   -3.0670   26.2120 C   0  0  0  0  0  0  0  0  0  0  0  0
    5.0280   -4.0010   27.6370 S   0  0  0  0  0  0  0  0  0  0  0  0
    3.3010   -4.1110   27.6800 C   0  0  0  0  0  0  0  0  0  0  0  0
    2.5270   -4.8420   28.7350 C   0  0  0  0  0  0  0  0  0  0  0  0
    1.0660   -4.4390   28.6210 C   0  0  0  0  0  0  0  0  0  0  0  0
    0.5220   -6.0930   24.5730 S   0  0  0  0  0  0  0  0  0  0  0  0
  4  3  2  0
  3  2  1  0
  2  1  1  0
  5  3  1  0
  5 13  1  0
 13 12  1  0
 12 11  1  0
 11 10  1  0
 10  9  1  0
  9  8  2  0
  8  7  1  0
 11  7  2  0
  7  6  1  0
  6  5  1  0
  2 14  1  6
M  END
>  <id>  (177) 
177

>  <inchikey>  (177) 
PDBFXSXTYLNPFJ-QMMMGPOBSA-N

>  <alias>  (177) 
B1169a

>  <smiles>  (177) 
O=C([C@H](S)Cl)N1CCc2sccc2C1

>  <path>  (177) 
/opt/xchem-fragalysis-2/maxwin/BulkDock/TARGETS/D68EV3C/aligned_files/B1169a/B1169a.pdb

>  <distance_score>  (177) 
None

>  <energy_score>  (177) 
None

>  <compound>  (177) 
PDBFXSXTYLNPFJ-UHFFFAOYSA-N

>  <compound_id>  (177) 
139

>  <target>  (177) 
D68EV3C

>  <tags>  (177) 
['BAD count', '[Other] upload_1 2025-02-11', 'hits', 'MEDIOCRE count', 'Main status', 'GOOD count']

>  <inspirations>  (177) 
None

>  <subsites>  (177) 
None

>  <reference>  (177) 


>  <observation_longname>  (177) 
D68EV3CPROB-x1169_A_308_v1

>  <ConformerSites alias>  (177) 
1a - 7gp9/A/201

>  <CanonSites alias>  (177) 
1 - 7gp9/A/201/1

>  <CrystalformSites alias>  (177) 
F1f - 0446/A/209

>  <Quatassemblies alias>  (177) 
A1 - monomer

>  <Crystalforms alias>  (177) 
F1 - D68_3C_PROB

>  <ConformerSites upload name>  (177) 
1a - 7gp9/A/201

>  <CanonSites upload name>  (177) 
1 - 7gp9/A/201/1

>  <CrystalformSites upload name>  (177) 
F1f - D68EV3CPROB-x0446/A/209/1

>  <Quatassemblies upload name>  (177) 
A1 - monomer

>  <Crystalforms upload name>  (177) 
F1 - D68_3C_PROB

>  <ConformerSites short tag>  (177) 
1a - 7gp9/A/201

>  <CanonSites short tag>  (177) 
1 - 7gp9/A/201/1

>  <CrystalformSites short tag>  (177) 
F1f - 0446/A/209

>  <Quatassemblies short tag>  (177) 
A1 - monomer

>  <Crystalforms short tag>  (177) 
F1 - D68_3C_PROB

>  <Centroid res>  (177) 
7gp9/A/163/A_v1

>  <Experiment code>  (177) 
D68EV3CPROB-x1169

>  <Pose>  (177) 
B1169a

$$$$
B1169b
     RDKit          3D

 13 14  0  0  0  0  0  0  0  0999 V2000
  -17.5570  -19.8170    9.3750 Cl  0  0  0  0  0  0  0  0  0  0  0  0
  -17.7770  -19.1500   11.0060 C   0  0  0  0  0  0  0  0  0  0  0  0
  -19.1860  -18.6240   11.2230 C   0  0  0  0  0  0  0  0  0  0  0  0
  -20.0810  -18.8890   10.4340 O   0  0  0  0  0  0  0  0  0  0  0  0
  -19.4230  -17.9130   12.3430 N   0  0  0  0  0  0  0  0  0  0  0  0
  -20.7980  -17.4930   12.6350 C   0  0  0  0  0  0  0  0  0  0  0  0
  -20.8540  -16.2220   13.4470 C   0  0  0  0  0  0  0  0  0  0  0  0
  -22.0440  -15.5690   13.8880 C   0  0  0  0  0  0  0  0  0  0  0  0
  -21.7840  -14.4680   14.6220 C   0  0  0  0  0  0  0  0  0  0  0  0
  -20.1010  -14.1880   14.7810 S   0  0  0  0  0  0  0  0  0  0  0  0
  -19.7240  -15.5850   13.8500 C   0  0  0  0  0  0  0  0  0  0  0  0
  -18.3330  -16.0550   13.5540 C   0  0  0  0  0  0  0  0  0  0  0  0
  -18.3800  -17.5590   13.3170 C   0  0  0  0  0  0  0  0  0  0  0  0
  4  3  2  0
  3  2  1  0
  2  1  1  0
  5  3  1  0
  5 13  1  0
 13 12  1  0
 12 11  1  0
 11 10  1  0
 10  9  1  0
  9  8  2  0
  8  7  1  0
 11  7  2  0
  7  6  1  0
  6  5  1  0
M  END
>  <id>  (178) 
178

>  <inchikey>  (178) 
QSRTWFRGDFZQPO-UHFFFAOYSA-N

>  <alias>  (178) 
B1169b

>  <smiles>  (178) 
O=C(CCl)N1CCc2sccc2C1

>  <path>  (178) 
/opt/xchem-fragalysis-2/maxwin/BulkDock/TARGETS/D68EV3C/aligned_files/B1169b/B1169b.pdb

>  <distance_score>  (178) 
None

>  <energy_score>  (178) 
None

>  <compound>  (178) 
QSRTWFRGDFZQPO-UHFFFAOYSA-N

>  <compound_id>  (178) 
140

>  <target>  (178) 
D68EV3C

>  <tags>  (178) 
['BAD count', '[Other] upload_1 2025-02-11', 'hits', 'MEDIOCRE count', 'Main status', 'GOOD count']

>  <inspirations>  (178) 
None

>  <subsites>  (178) 
None

>  <reference>  (178) 


>  <observation_longname>  (178) 
D68EV3CPROB-x1169_A_309_v1

>  <ConformerSites alias>  (178) 
7a - B1081/A/308

>  <CanonSites alias>  (178) 
7 - B1081/A/308/1

>  <CrystalformSites alias>  (178) 
F1ab - B1169/A/309

>  <Quatassemblies alias>  (178) 
A1 - monomer

>  <Crystalforms alias>  (178) 
F1 - D68_3C_PROB

>  <ConformerSites upload name>  (178) 
7a - D68EV3CPROB-x1081/A/308

>  <CanonSites upload name>  (178) 
7 - D68EV3CPROB-x1081/A/308/1

>  <CrystalformSites upload name>  (178) 
F1ab - D68EV3CPROB-x1169/A/309/1

>  <Quatassemblies upload name>  (178) 
A1 - monomer

>  <Crystalforms upload name>  (178) 
F1 - D68_3C_PROB

>  <ConformerSites short tag>  (178) 
7a - B1081/A/308

>  <CanonSites short tag>  (178) 
7 - B1081/A/308/1

>  <CrystalformSites short tag>  (178) 
F1ab - B1169/A/309

>  <Quatassemblies short tag>  (178) 
A1 - monomer

>  <Crystalforms short tag>  (178) 
F1 - D68_3C_PROB

>  <Centroid res>  (178) 
D68EV3CPROB-x1081/B/91/A_v1

>  <Experiment code>  (178) 
D68EV3CPROB-x1169

>  <Pose>  (178) 
B1169b

$$$$
B1170a
     RDKit          3D

 18 19  0  0  0  0  0  0  0  0999 V2000
   -3.5050   -0.2660    7.9630 Cl  0  0  0  0  0  0  0  0  0  0  0  0
   -4.4180   -0.6760    6.3580 C   0  0  1  0  0  0  0  0  0  0  0  0
   -3.9750   -1.8310    5.8870 F   0  0  0  0  0  0  0  0  0  0  0  0
   -5.8690   -0.8020    6.8050 C   0  0  0  0  0  0  0  0  0  0  0  0
   -6.4400   -1.8880    6.7200 O   0  0  0  0  0  0  0  0  0  0  0  0
   -6.4230    0.3260    7.3090 N   0  0  0  0  0  0  0  0  0  0  0  0
   -7.7150    0.4910    7.8570 C   0  0  0  0  0  0  0  0  0  0  0  0
   -8.1060    1.7190    8.3750 C   0  0  0  0  0  0  0  0  0  0  0  0
   -9.2830    1.9390    8.9680 N   0  0  0  0  0  0  0  0  0  0  0  0
  -10.1370    0.9100    9.0440 C   0  0  0  0  0  0  0  0  0  0  0  0
   -9.8540   -0.3570    8.5290 C   0  0  0  0  0  0  0  0  0  0  0  0
   -8.6220   -0.5540    7.9380 C   0  0  0  0  0  0  0  0  0  0  0  0
  -11.3290    1.1570    9.6720 N   0  0  0  0  0  0  0  0  0  0  0  0
  -11.8080    2.5170    9.9190 C   0  0  0  0  0  0  0  0  0  0  0  0
  -13.2910    2.4810   10.1800 C   0  0  0  0  0  0  0  0  0  0  0  0
  -13.8820    1.2700    9.7040 O   0  0  0  0  0  0  0  0  0  0  0  0
  -13.3950    0.1550   10.4510 C   0  0  0  0  0  0  0  0  0  0  0  0
  -11.9020    0.2190   10.6400 C   0  0  0  0  0  0  0  0  0  0  0  0
  5  4  2  0
  6  4  1  0
  7  6  1  0
  7 12  2  0
 12 11  1  0
 11 10  2  0
 13 10  1  0
 13 18  1  0
 18 17  1  0
 17 16  1  0
 16 15  1  0
 15 14  1  0
 14 13  1  0
 10  9  1  0
  9  8  2  0
  8  7  1  0
  4  2  1  0
  2  3  1  1
  2  1  1  0
M  END
>  <id>  (179) 
179

>  <inchikey>  (179) 
UAKMQVWDSXMIIM-JTQLQIEISA-N

>  <alias>  (179) 
B1170a

>  <smiles>  (179) 
O=C(Nc1ccc(N2CCOCC2)nc1)[C@H](F)Cl

>  <path>  (179) 
/opt/xchem-fragalysis-2/maxwin/BulkDock/TARGETS/D68EV3C/aligned_files/B1170a/B1170a.pdb

>  <distance_score>  (179) 
None

>  <energy_score>  (179) 
None

>  <compound>  (179) 
UAKMQVWDSXMIIM-UHFFFAOYSA-N

>  <compound_id>  (179) 
141

>  <target>  (179) 
D68EV3C

>  <tags>  (179) 
['BAD count', '[Other] upload_1 2025-02-11', 'hits', 'MEDIOCRE count', 'Main status', 'GOOD count']

>  <inspirations>  (179) 
None

>  <subsites>  (179) 
None

>  <reference>  (179) 


>  <observation_longname>  (179) 
D68EV3CPROB-x1170_A_308_v1

>  <ConformerSites alias>  (179) 
3a - 7gpw/B/202

>  <CanonSites alias>  (179) 
3 - 7gpw/B/202/1

>  <CrystalformSites alias>  (179) 
F1o - 0426/A/209

>  <Quatassemblies alias>  (179) 
A1 - monomer

>  <Crystalforms alias>  (179) 
F1 - D68_3C_PROB

>  <ConformerSites upload name>  (179) 
3a - 7gpw/B/202

>  <CanonSites upload name>  (179) 
3 - 7gpw/B/202/1

>  <CrystalformSites upload name>  (179) 
F1o - D68EV3CPROB-x0426/A/209/1

>  <Quatassemblies upload name>  (179) 
A1 - monomer

>  <Crystalforms upload name>  (179) 
F1 - D68_3C_PROB

>  <ConformerSites short tag>  (179) 
3a - 7gpw/B/202

>  <CanonSites short tag>  (179) 
3 - 7gpw/B/202/1

>  <CrystalformSites short tag>  (179) 
F1o - 0426/A/209

>  <Quatassemblies short tag>  (179) 
A1 - monomer

>  <Crystalforms short tag>  (179) 
F1 - D68_3C_PROB

>  <Centroid res>  (179) 
7gpw/B/74/B_v1

>  <Experiment code>  (179) 
D68EV3CPROB-x1170

>  <Pose>  (179) 
B1170a

$$$$
B1219a
     RDKit          3D

 20 23  0  0  0  0  0  0  0  0999 V2000
   -1.3490   -0.3480   27.8130 F   0  0  0  0  0  0  0  0  0  0  0  0
   -0.3640   -1.1570   28.2900 C   0  0  0  0  0  0  0  0  0  0  0  0
   -0.7310   -2.2250   29.0790 C   0  0  0  0  0  0  0  0  0  0  0  0
    0.2980   -2.9840   29.6280 C   0  0  0  0  0  0  0  0  0  0  0  0
    1.6340   -2.6830   29.3670 C   0  0  0  0  0  0  0  0  0  0  0  0
    1.9540   -1.6110   28.5380 C   0  0  0  0  0  0  0  0  0  0  0  0
    0.9420   -0.8350   27.9960 C   0  0  0  0  0  0  0  0  0  0  0  0
    0.3260   -4.0470   30.5310 N   0  0  0  0  0  0  0  0  0  0  0  0
    1.6340   -4.3110   30.7630 C   0  0  0  0  0  0  0  0  0  0  0  0
    2.4450   -3.5400   30.0940 N   0  0  0  0  0  0  0  0  0  0  0  0
    2.2130   -5.5520   31.8600 S   0  0  0  0  0  0  0  0  0  0  0  0
    0.9270   -6.0560   32.9080 C   0  0  0  0  0  0  0  0  0  0  0  0
   -0.0720   -6.8940   32.4010 N   0  0  0  0  0  0  0  0  0  0  0  0
   -0.3530   -7.3690   31.1520 C   0  0  0  0  0  0  0  0  0  0  0  0
   -1.4010   -8.1450   31.1740 N   0  0  0  0  0  0  0  0  0  0  0  0
   -1.8590   -8.2010   32.4890 N   0  0  0  0  0  0  0  0  0  0  0  0
   -1.0530   -7.4400   33.2240 C   0  0  0  0  0  0  0  0  0  0  0  0
   -1.0270   -7.1150   34.6040 C   0  0  0  0  0  0  0  0  0  0  0  0
   -0.0590   -6.2760   35.0830 C   0  0  0  0  0  0  0  0  0  0  0  0
    0.9330   -5.7320   34.2240 C   0  0  0  0  0  0  0  0  0  0  0  0
  2  1  1  0
  2  7  2  0
  7  6  1  0
  6  5  2  0
  5 10  1  0
 10  9  2  0
 11  9  1  0
 12 11  1  0
 12 20  2  0
 20 19  1  0
 19 18  2  0
 18 17  1  0
 17 16  2  0
 16 15  1  0
 15 14  2  0
 14 13  1  0
 13 12  1  0
 17 13  1  0
  9  8  1  0
  8  4  1  0
  5  4  1  0
  4  3  2  0
  3  2  1  0
M  END
>  <id>  (180) 
180

>  <inchikey>  (180) 
RAAZIUQROHXXRO-UHFFFAOYSA-N

>  <alias>  (180) 
B1219a

>  <smiles>  (180) 
Fc1ccc2nc(Sc3cccc4nncn34)[nH]c2c1

>  <path>  (180) 
/opt/xchem-fragalysis-2/maxwin/BulkDock/TARGETS/D68EV3C/aligned_files/B1219a/B1219a.pdb

>  <distance_score>  (180) 
None

>  <energy_score>  (180) 
None

>  <compound>  (180) 
RAAZIUQROHXXRO-UHFFFAOYSA-N

>  <compound_id>  (180) 
142

>  <target>  (180) 
D68EV3C

>  <tags>  (180) 
['BAD count', '[Other] upload_1 2025-02-11', '[Other] iter1_frags', 'hits', 'MEDIOCRE count', 'Main status', 'GOOD count']

>  <inspirations>  (180) 
None

>  <subsites>  (180) 
None

>  <reference>  (180) 


>  <observation_longname>  (180) 
D68EV3CPROB-x1219_A_310_v1

>  <ConformerSites alias>  (180) 
1a - 7gp9/A/201

>  <CanonSites alias>  (180) 
1 - 7gp9/A/201/1

>  <CrystalformSites alias>  (180) 
F1f - 0446/A/209

>  <Quatassemblies alias>  (180) 
A1 - monomer

>  <Crystalforms alias>  (180) 
F1 - D68_3C_PROB

>  <ConformerSites upload name>  (180) 
1a - 7gp9/A/201

>  <CanonSites upload name>  (180) 
1 - 7gp9/A/201/1

>  <CrystalformSites upload name>  (180) 
F1f - D68EV3CPROB-x0446/A/209/1

>  <Quatassemblies upload name>  (180) 
A1 - monomer

>  <Crystalforms upload name>  (180) 
F1 - D68_3C_PROB

>  <ConformerSites short tag>  (180) 
1a - 7gp9/A/201

>  <CanonSites short tag>  (180) 
1 - 7gp9/A/201/1

>  <CrystalformSites short tag>  (180) 
F1f - 0446/A/209

>  <Quatassemblies short tag>  (180) 
A1 - monomer

>  <Crystalforms short tag>  (180) 
F1 - D68_3C_PROB

>  <Centroid res>  (180) 
7gp9/A/163/A_v1

>  <Experiment code>  (180) 
D68EV3CPROB-x1219

>  <Pose>  (180) 
B1219a

$$$$
B1219b
     RDKit          3D

 20 23  0  0  0  0  0  0  0  0999 V2000
   -3.8020   -2.3390    7.6850 F   0  0  0  0  0  0  0  0  0  0  0  0
   -4.6430   -1.2760    7.5420 C   0  0  0  0  0  0  0  0  0  0  0  0
   -5.9940   -1.5310    7.4780 C   0  0  0  0  0  0  0  0  0  0  0  0
   -6.8300   -0.4410    7.2810 C   0  0  0  0  0  0  0  0  0  0  0  0
   -6.3210    0.8510    7.1500 C   0  0  0  0  0  0  0  0  0  0  0  0
   -4.9430    1.0630    7.2350 C   0  0  0  0  0  0  0  0  0  0  0  0
   -4.0950   -0.0150    7.4360 C   0  0  0  0  0  0  0  0  0  0  0  0
   -8.2020   -0.3210    7.1120 N   0  0  0  0  0  0  0  0  0  0  0  0
   -8.4450    0.9910    6.8710 C   0  0  0  0  0  0  0  0  0  0  0  0
   -7.3690    1.7320    6.8990 N   0  0  0  0  0  0  0  0  0  0  0  0
  -10.0450    1.5660    6.4520 S   0  0  0  0  0  0  0  0  0  0  0  0
  -11.0940    0.5830    7.4290 C   0  0  0  0  0  0  0  0  0  0  0  0
  -11.2490    0.9370    8.7640 N   0  0  0  0  0  0  0  0  0  0  0  0
  -10.6500    1.8690    9.5590 C   0  0  0  0  0  0  0  0  0  0  0  0
  -11.1740    1.8680   10.7520 N   0  0  0  0  0  0  0  0  0  0  0  0
  -12.1660    0.8850   10.7750 N   0  0  0  0  0  0  0  0  0  0  0  0
  -12.2000    0.3290    9.5710 C   0  0  0  0  0  0  0  0  0  0  0  0
  -13.0020   -0.6860    9.0060 C   0  0  0  0  0  0  0  0  0  0  0  0
  -12.8110   -1.0540    7.7000 C   0  0  0  0  0  0  0  0  0  0  0  0
  -11.8370   -0.4160    6.8940 C   0  0  0  0  0  0  0  0  0  0  0  0
  2  1  1  0
  2  7  2  0
  7  6  1  0
  6  5  2  0
  5 10  1  0
 10  9  2  0
 11  9  1  0
 12 11  1  0
 12 20  2  0
 20 19  1  0
 19 18  2  0
 18 17  1  0
 17 16  2  0
 16 15  1  0
 15 14  2  0
 14 13  1  0
 13 12  1  0
 17 13  1  0
  9  8  1  0
  8  4  1  0
  5  4  1  0
  4  3  2  0
  3  2  1  0
M  END
>  <id>  (181) 
181

>  <inchikey>  (181) 
RAAZIUQROHXXRO-UHFFFAOYSA-N

>  <alias>  (181) 
B1219b

>  <smiles>  (181) 
Fc1ccc2nc(Sc3cccc4nncn34)[nH]c2c1

>  <path>  (181) 
/opt/xchem-fragalysis-2/maxwin/BulkDock/TARGETS/D68EV3C/aligned_files/B1219b/B1219b.pdb

>  <distance_score>  (181) 
None

>  <energy_score>  (181) 
None

>  <compound>  (181) 
RAAZIUQROHXXRO-UHFFFAOYSA-N

>  <compound_id>  (181) 
142

>  <target>  (181) 
D68EV3C

>  <tags>  (181) 
['BAD count', '[Other] upload_1 2025-02-11', 'hits', 'MEDIOCRE count', 'Main status', 'GOOD count']

>  <inspirations>  (181) 
None

>  <subsites>  (181) 
None

>  <reference>  (181) 


>  <observation_longname>  (181) 
D68EV3CPROB-x1219_A_308_v1

>  <ConformerSites alias>  (181) 
3a - 7gpw/B/202

>  <CanonSites alias>  (181) 
3 - 7gpw/B/202/1

>  <CrystalformSites alias>  (181) 
F1o - 0426/A/209

>  <Quatassemblies alias>  (181) 
A1 - monomer

>  <Crystalforms alias>  (181) 
F1 - D68_3C_PROB

>  <ConformerSites upload name>  (181) 
3a - 7gpw/B/202

>  <CanonSites upload name>  (181) 
3 - 7gpw/B/202/1

>  <CrystalformSites upload name>  (181) 
F1o - D68EV3CPROB-x0426/A/209/1

>  <Quatassemblies upload name>  (181) 
A1 - monomer

>  <Crystalforms upload name>  (181) 
F1 - D68_3C_PROB

>  <ConformerSites short tag>  (181) 
3a - 7gpw/B/202

>  <CanonSites short tag>  (181) 
3 - 7gpw/B/202/1

>  <CrystalformSites short tag>  (181) 
F1o - 0426/A/209

>  <Quatassemblies short tag>  (181) 
A1 - monomer

>  <Crystalforms short tag>  (181) 
F1 - D68_3C_PROB

>  <Centroid res>  (181) 
7gpw/B/74/B_v1

>  <Experiment code>  (181) 
D68EV3CPROB-x1219

>  <Pose>  (181) 
B1219b

$$$$
B1219c
     RDKit          3D

 20 23  0  0  0  0  0  0  0  0999 V2000
   -4.1950   -2.9730    4.3980 F   0  0  0  0  0  0  0  0  0  0  0  0
   -5.2980   -2.2000    4.2040 C   0  0  0  0  0  0  0  0  0  0  0  0
   -5.1130   -0.8520    3.9860 C   0  0  0  0  0  0  0  0  0  0  0  0
   -6.2540   -0.0850    3.7940 C   0  0  0  0  0  0  0  0  0  0  0  0
   -7.5260   -0.6590    3.8180 C   0  0  0  0  0  0  0  0  0  0  0  0
   -7.6630   -2.0290    4.0360 C   0  0  0  0  0  0  0  0  0  0  0  0
   -6.5340   -2.8090    4.2360 C   0  0  0  0  0  0  0  0  0  0  0  0
   -6.4630    1.2710    3.5680 N   0  0  0  0  0  0  0  0  0  0  0  0
   -7.8050    1.4400    3.4730 C   0  0  0  0  0  0  0  0  0  0  0  0
   -8.4800    0.3330    3.6130 N   0  0  0  0  0  0  0  0  0  0  0  0
   -8.5190    3.0250    3.1800 S   0  0  0  0  0  0  0  0  0  0  0  0
  -10.0980    2.5860    2.5860 C   0  0  0  0  0  0  0  0  0  0  0  0
  -10.2370    1.8420    1.4070 N   0  0  0  0  0  0  0  0  0  0  0  0
   -9.3460    1.3110    0.5180 C   0  0  0  0  0  0  0  0  0  0  0  0
   -9.9660    0.6930   -0.4490 N   0  0  0  0  0  0  0  0  0  0  0  0
  -11.3340    0.8040   -0.2140 N   0  0  0  0  0  0  0  0  0  0  0  0
  -11.4900    1.4980    0.9080 C   0  0  0  0  0  0  0  0  0  0  0  0
  -12.6370    1.9200    1.6220 C   0  0  0  0  0  0  0  0  0  0  0  0
  -12.4910    2.6400    2.7700 C   0  0  0  0  0  0  0  0  0  0  0  0
  -11.2060    2.9770    3.2620 C   0  0  0  0  0  0  0  0  0  0  0  0
  2  1  1  0
  2  7  2  0
  7  6  1  0
  6  5  2  0
  5 10  1  0
 10  9  2  0
 11  9  1  0
 12 11  1  0
 12 20  2  0
 20 19  1  0
 19 18  2  0
 18 17  1  0
 17 16  2  0
 16 15  1  0
 15 14  2  0
 14 13  1  0
 13 12  1  0
 17 13  1  0
  9  8  1  0
  8  4  1  0
  5  4  1  0
  4  3  2  0
  3  2  1  0
M  END
>  <id>  (182) 
182

>  <inchikey>  (182) 
RAAZIUQROHXXRO-UHFFFAOYSA-N

>  <alias>  (182) 
B1219c

>  <smiles>  (182) 
Fc1ccc2nc(Sc3cccc4nncn34)[nH]c2c1

>  <path>  (182) 
/opt/xchem-fragalysis-2/maxwin/BulkDock/TARGETS/D68EV3C/aligned_files/B1219c/B1219c.pdb

>  <distance_score>  (182) 
None

>  <energy_score>  (182) 
None

>  <compound>  (182) 
RAAZIUQROHXXRO-UHFFFAOYSA-N

>  <compound_id>  (182) 
142

>  <target>  (182) 
D68EV3C

>  <tags>  (182) 
['BAD count', '[Other] upload_1 2025-02-11', 'hits', 'MEDIOCRE count', 'Main status', 'GOOD count']

>  <inspirations>  (182) 
None

>  <subsites>  (182) 
None

>  <reference>  (182) 


>  <observation_longname>  (182) 
D68EV3CPROB-x1219_A_309_v1

>  <ConformerSites alias>  (182) 
3a - 7gpw/B/202

>  <CanonSites alias>  (182) 
3 - 7gpw/B/202/1

>  <CrystalformSites alias>  (182) 
F1o - 0426/A/209

>  <Quatassemblies alias>  (182) 
A1 - monomer

>  <Crystalforms alias>  (182) 
F1 - D68_3C_PROB

>  <ConformerSites upload name>  (182) 
3a - 7gpw/B/202

>  <CanonSites upload name>  (182) 
3 - 7gpw/B/202/1

>  <CrystalformSites upload name>  (182) 
F1o - D68EV3CPROB-x0426/A/209/1

>  <Quatassemblies upload name>  (182) 
A1 - monomer

>  <Crystalforms upload name>  (182) 
F1 - D68_3C_PROB

>  <ConformerSites short tag>  (182) 
3a - 7gpw/B/202

>  <CanonSites short tag>  (182) 
3 - 7gpw/B/202/1

>  <CrystalformSites short tag>  (182) 
F1o - 0426/A/209

>  <Quatassemblies short tag>  (182) 
A1 - monomer

>  <Crystalforms short tag>  (182) 
F1 - D68_3C_PROB

>  <Centroid res>  (182) 
7gpw/B/74/B_v1

>  <Experiment code>  (182) 
D68EV3CPROB-x1219

>  <Pose>  (182) 
B1219b

$$$$
B1264a
     RDKit          3D

 14 15  0  0  0  0  0  0  0  0999 V2000
    0.0370   -8.0520   36.7110 F   0  0  0  0  0  0  0  0  0  0  0  0
    0.0640   -6.5060   36.6370 S   0  0  0  0  0  0  0  0  0  0  0  0
    1.2660   -6.1150   37.2650 O   0  0  0  0  0  0  0  0  0  0  0  0
   -1.1720   -6.0530   37.1480 O   0  0  0  0  0  0  0  0  0  0  0  0
    0.1480   -6.2750   34.9590 C   0  0  0  0  0  0  0  0  0  0  0  0
    0.9600   -5.2480   34.4960 C   0  0  0  0  0  0  0  0  0  0  0  0
    1.0560   -5.0120   33.1330 C   0  0  0  0  0  0  0  0  0  0  0  0
   -0.5650   -7.0640   34.0620 C   0  0  0  0  0  0  0  0  0  0  0  0
   -0.4560   -6.8160   32.6870 C   0  0  0  0  0  0  0  0  0  0  0  0
   -1.0800   -7.4840   31.5250 C   0  0  0  0  0  0  0  0  0  0  0  0
   -1.8370   -8.4560   31.5150 O   0  0  0  0  0  0  0  0  0  0  0  0
    0.3560   -5.7970   32.2250 C   0  0  0  0  0  0  0  0  0  0  0  0
    0.3150   -5.7650   30.7250 C   0  0  0  0  0  0  0  0  0  0  0  0
   -0.6200   -6.8460   30.4340 N   0  0  0  0  0  0  0  0  0  0  0  0
 11 10  2  0
 10 14  1  0
 14 13  1  0
 13 12  1  0
 12  7  2  0
  7  6  1  0
  6  5  2  0
  5  2  1  0
  3  2  2  0
  4  2  2  0
  2  1  1  0
  8  5  1  0
  9  8  2  0
 12  9  1  0
 10  9  1  0
M  END
>  <id>  (183) 
183

>  <inchikey>  (183) 
UCPULQCYOXCNJC-UHFFFAOYSA-N

>  <alias>  (183) 
B1264a

>  <smiles>  (183) 
O=C1NCc2ccc(S(=O)(=O)F)cc21

>  <path>  (183) 
/opt/xchem-fragalysis-2/maxwin/BulkDock/TARGETS/D68EV3C/aligned_files/B1264a/B1264a.pdb

>  <distance_score>  (183) 
None

>  <energy_score>  (183) 
None

>  <compound>  (183) 
UCPULQCYOXCNJC-UHFFFAOYSA-N

>  <compound_id>  (183) 
143

>  <target>  (183) 
D68EV3C

>  <tags>  (183) 
['BAD count', '[Other] upload_1 2025-02-11', '[Other] iter1_frags', 'hits', 'MEDIOCRE count', 'Main status', 'GOOD count']

>  <inspirations>  (183) 
None

>  <subsites>  (183) 
None

>  <reference>  (183) 


>  <observation_longname>  (183) 
D68EV3CPROB-x1264_B_301_v1

>  <ConformerSites alias>  (183) 
1a - 7gp9/A/201

>  <CanonSites alias>  (183) 
1 - 7gp9/A/201/1

>  <CrystalformSites alias>  (183) 
F1e - 0436/B/301

>  <Quatassemblies alias>  (183) 
A1 - monomer

>  <Crystalforms alias>  (183) 
F1 - D68_3C_PROB

>  <ConformerSites upload name>  (183) 
1a - 7gp9/A/201

>  <CanonSites upload name>  (183) 
1 - 7gp9/A/201/1

>  <CrystalformSites upload name>  (183) 
F1e - D68EV3CPROB-x0436/B/301/1

>  <Quatassemblies upload name>  (183) 
A1 - monomer

>  <Crystalforms upload name>  (183) 
F1 - D68_3C_PROB

>  <ConformerSites short tag>  (183) 
1a - 7gp9/A/201

>  <CanonSites short tag>  (183) 
1 - 7gp9/A/201/1

>  <CrystalformSites short tag>  (183) 
F1e - 0436/B/301

>  <Quatassemblies short tag>  (183) 
A1 - monomer

>  <Crystalforms short tag>  (183) 
F1 - D68_3C_PROB

>  <Centroid res>  (183) 
7gp9/A/163/A_v1

>  <Experiment code>  (183) 
D68EV3CPROB-x1264

>  <Pose>  (183) 
B1264a

$$$$
B1270a
     RDKit          3D

 22 25  0  0  0  0  0  0  0  0999 V2000
   15.6150   -4.9610   20.1390 C   0  0  0  0  0  0  0  0  0  0  0  0
   15.0650   -3.7570   19.5250 N   0  0  0  0  0  0  0  0  0  0  0  0
   15.2370   -2.4710   19.8580 C   0  0  0  0  0  0  0  0  0  0  0  0
   16.3020   -2.0030   21.1680 S   0  0  0  0  0  0  0  0  0  0  0  0
   16.4090   -0.2590   21.3870 C   0  0  0  0  0  0  0  0  0  0  0  0
   15.3050    0.4910   21.7960 N   0  0  0  0  0  0  0  0  0  0  0  0
   13.9990    0.1650   22.0130 C   0  0  0  0  0  0  0  0  0  0  0  0
   13.3160    1.2050   22.4010 N   0  0  0  0  0  0  0  0  0  0  0  0
   14.1920    2.2900   22.4490 N   0  0  0  0  0  0  0  0  0  0  0  0
   15.3900    1.8510   22.0830 C   0  0  0  0  0  0  0  0  0  0  0  0
   16.6470    2.4860   21.9500 C   0  0  0  0  0  0  0  0  0  0  0  0
   17.7260    1.7570   21.5420 C   0  0  0  0  0  0  0  0  0  0  0  0
   17.6030    0.3720   21.2500 C   0  0  0  0  0  0  0  0  0  0  0  0
   14.5700   -1.6690   19.0480 N   0  0  0  0  0  0  0  0  0  0  0  0
   13.9810   -2.5940   18.1790 C   0  0  0  0  0  0  0  0  0  0  0  0
   14.2630   -3.8640   18.4420 N   0  0  0  0  0  0  0  0  0  0  0  0
   13.0990   -2.2020   17.0530 C   0  0  0  0  0  0  0  0  0  0  0  0
   13.0780   -0.8890   16.5850 C   0  0  0  0  0  0  0  0  0  0  0  0
   12.2410   -0.5300   15.5400 C   0  0  0  0  0  0  0  0  0  0  0  0
   11.4180   -1.4720   14.9540 C   0  0  0  0  0  0  0  0  0  0  0  0
   11.4370   -2.7760   15.4010 C   0  0  0  0  0  0  0  0  0  0  0  0
   12.2650   -3.1440   16.4460 C   0  0  0  0  0  0  0  0  0  0  0  0
  2  1  1  0
  2 16  1  0
 16 15  2  0
 17 15  1  0
 17 22  2  0
 22 21  1  0
 21 20  2  0
 20 19  1  0
 19 18  2  0
 18 17  1  0
 15 14  1  0
 14  3  2  0
  3  2  1  0
  4  3  1  0
  5  4  1  0
  5 13  2  0
 13 12  1  0
 12 11  2  0
 11 10  1  0
 10  9  2  0
  9  8  1  0
  8  7  2  0
  7  6  1  0
  6  5  1  0
 10  6  1  0
M  END
>  <id>  (184) 
184

>  <inchikey>  (184) 
IJYZRKNEWLYHCD-UHFFFAOYSA-N

>  <alias>  (184) 
B1270a

>  <smiles>  (184) 
Cn1nc(-c2ccccc2)nc1Sc1cccc2nncn12

>  <path>  (184) 
/opt/xchem-fragalysis-2/maxwin/BulkDock/TARGETS/D68EV3C/aligned_files/B1270a/B1270a.pdb

>  <distance_score>  (184) 
None

>  <energy_score>  (184) 
None

>  <compound>  (184) 
IJYZRKNEWLYHCD-UHFFFAOYSA-N

>  <compound_id>  (184) 
144

>  <target>  (184) 
D68EV3C

>  <tags>  (184) 
['BAD count', '[Other] upload_1 2025-02-11', 'hits', 'MEDIOCRE count', 'Main status', 'GOOD count']

>  <inspirations>  (184) 
None

>  <subsites>  (184) 
None

>  <reference>  (184) 


>  <observation_longname>  (184) 
D68EV3CPROB-x1270_A_308_v1

>  <ConformerSites alias>  (184) 
2a - 7gon/B/201

>  <CanonSites alias>  (184) 
2 - 7gon/B/201/1

>  <CrystalformSites alias>  (184) 
F1k - 0693/A/209

>  <Quatassemblies alias>  (184) 
A1 - monomer

>  <Crystalforms alias>  (184) 
F1 - D68_3C_PROB

>  <ConformerSites upload name>  (184) 
2a - 7gon/B/201

>  <CanonSites upload name>  (184) 
2 - 7gon/B/201/1

>  <CrystalformSites upload name>  (184) 
F1k - D68EV3CPROB-x0693/A/209/1

>  <Quatassemblies upload name>  (184) 
A1 - monomer

>  <Crystalforms upload name>  (184) 
F1 - D68_3C_PROB

>  <ConformerSites short tag>  (184) 
2a - 7gon/B/201

>  <CanonSites short tag>  (184) 
2 - 7gon/B/201/1

>  <CrystalformSites short tag>  (184) 
F1k - 0693/A/209

>  <Quatassemblies short tag>  (184) 
A1 - monomer

>  <Crystalforms short tag>  (184) 
F1 - D68_3C_PROB

>  <Centroid res>  (184) 
7gon/B/47/B_v1

>  <Experiment code>  (184) 
D68EV3CPROB-x1270

>  <Pose>  (184) 
B1270a

$$$$
B1276a
     RDKit          3D

 16 17  0  0  0  0  0  0  0  0999 V2000
  -13.7650   -7.3940   39.6230 O   0  0  0  0  0  0  0  0  0  0  0  0
  -13.9890   -8.5650   39.9200 C   0  0  0  0  0  0  0  0  0  0  0  0
  -13.7400   -9.1300   41.1150 N   0  0  0  0  0  0  0  0  0  0  0  0
  -13.9120  -10.5760   41.1420 C   0  0  0  0  0  0  0  0  0  0  0  0
  -14.4220  -10.8420   39.7560 C   0  0  0  0  0  0  0  0  0  0  0  0
  -14.8890  -12.0110   39.1660 C   0  0  0  0  0  0  0  0  0  0  0  0
  -14.4530   -9.6540   39.0420 C   0  0  0  0  0  0  0  0  0  0  0  0
  -14.9460   -9.6150   37.7370 C   0  0  0  0  0  0  0  0  0  0  0  0
  -15.4300  -10.7900   37.1800 C   0  0  0  0  0  0  0  0  0  0  0  0
  -15.4150  -12.0090   37.8770 C   0  0  0  0  0  0  0  0  0  0  0  0
  -15.9780  -13.2710   37.2760 C   0  0  0  0  0  0  0  0  0  0  0  0
  -15.9920  -10.7550   35.8780 O   0  0  0  0  0  0  0  0  0  0  0  0
  -15.2250  -11.0600   34.5220 S   0  0  0  0  0  0  0  0  0  0  0  0
  -15.7780  -10.3320   33.4680 O   0  0  0  0  0  0  0  0  0  0  0  0
  -15.0410  -12.4530   34.4790 O   0  0  0  0  0  0  0  0  0  0  0  0
  -13.8990  -10.4620   34.8210 F   0  0  0  0  0  0  0  0  0  0  0  0
 11 10  1  0
 10  6  2  0
  6  5  1  0
  5  7  2  0
  8  7  1  0
  9  8  2  0
 10  9  1  0
 12  9  1  0
 13 12  1  0
 14 13  2  0
 15 13  2  0
 16 13  1  0
  7  2  1  0
  2  1  2  0
  3  2  1  0
  4  3  1  0
  5  4  1  0
M  END
>  <id>  (185) 
185

>  <inchikey>  (185) 
YRMOXVHEKVGXHS-UHFFFAOYSA-N

>  <alias>  (185) 
B1276a

>  <smiles>  (185) 
Cc1cc2c(cc1OS(=O)(=O)F)C(=O)NC2

>  <path>  (185) 
/opt/xchem-fragalysis-2/maxwin/BulkDock/TARGETS/D68EV3C/aligned_files/B1276a/B1276a.pdb

>  <distance_score>  (185) 
None

>  <energy_score>  (185) 
None

>  <compound>  (185) 
YRMOXVHEKVGXHS-UHFFFAOYSA-N

>  <compound_id>  (185) 
145

>  <target>  (185) 
D68EV3C

>  <tags>  (185) 
['BAD count', '[Other] upload_1 2025-02-11', 'hits', 'MEDIOCRE count', 'Main status', 'GOOD count']

>  <inspirations>  (185) 
None

>  <subsites>  (185) 
None

>  <reference>  (185) 


>  <observation_longname>  (185) 
D68EV3CPROB-x1276_A_308_v1

>  <ConformerSites alias>  (185) 
12a - B1035/A/308

>  <CanonSites alias>  (185) 
12 - B1035/A/308/1

>  <CrystalformSites alias>  (185) 
F1ai - B1035/A/308

>  <Quatassemblies alias>  (185) 
A1 - monomer

>  <Crystalforms alias>  (185) 
F1 - D68_3C_PROB

>  <ConformerSites upload name>  (185) 
12a - D68EV3CPROB-x1035/A/308

>  <CanonSites upload name>  (185) 
12 - D68EV3CPROB-x1035/A/308/1

>  <CrystalformSites upload name>  (185) 
F1ai - D68EV3CPROB-x1035/A/308/1

>  <Quatassemblies upload name>  (185) 
A1 - monomer

>  <Crystalforms upload name>  (185) 
F1 - D68_3C_PROB

>  <ConformerSites short tag>  (185) 
12a - B1035/A/308

>  <CanonSites short tag>  (185) 
12 - B1035/A/308/1

>  <CrystalformSites short tag>  (185) 
F1ai - B1035/A/308

>  <Quatassemblies short tag>  (185) 
A1 - monomer

>  <Crystalforms short tag>  (185) 
F1 - D68_3C_PROB

>  <Centroid res>  (185) 
D68EV3CPROB-x1035/B/138/A_v1

>  <Experiment code>  (185) 
D68EV3CPROB-x1276

>  <Pose>  (185) 
B1276a

$$$$
B1307a
     RDKit          3D

 18 19  0  0  0  0  0  0  0  0999 V2000
   -1.9800   -3.6830   31.4550 O   0  0  0  0  0  0  0  0  0  0  0  0
   -1.0040   -2.6490   31.6030 S   0  0  0  0  0  0  0  0  0  0  0  0
   -0.9490   -1.8990   32.8200 O   0  0  0  0  0  0  0  0  0  0  0  0
   -1.2030   -1.4920   30.3000 C   0  0  0  0  0  0  0  0  0  0  0  0
   -1.0060    0.1650   30.4570 S   0  0  0  0  0  0  0  0  0  0  0  0
   -1.1960    0.4780   28.8480 N   0  0  0  0  0  0  0  0  0  0  0  0
   -1.4180   -0.6800   28.1980 C   0  0  0  0  0  0  0  0  0  0  0  0
   -1.4390   -1.8200   28.9940 C   0  0  0  0  0  0  0  0  0  0  0  0
    0.4430   -3.3500   31.4090 N   0  0  0  0  0  0  0  0  0  0  0  0
    0.7260   -4.2070   30.2430 C   0  0  0  0  0  0  0  0  0  0  0  0
    1.3440   -5.5570   30.5860 C   0  0  0  0  0  0  0  0  0  0  0  0
    0.5610   -6.2810   31.6280 C   0  0  0  0  0  0  0  0  0  0  0  0
   -0.3920   -7.1460   31.1660 N   0  0  0  0  0  0  0  0  0  0  0  0
   -1.2540   -7.8390   31.9980 C   0  0  0  0  0  0  0  0  0  0  0  0
   -2.0970   -8.5830   31.5020 O   0  0  0  0  0  0  0  0  0  0  0  0
    0.7210   -6.0690   32.8940 N   0  0  0  0  0  0  0  0  0  0  0  0
   -0.0950   -6.7250   33.7650 C   0  0  0  0  0  0  0  0  0  0  0  0
   -1.0690   -7.5950   33.4070 C   0  0  0  0  0  0  0  0  0  0  0  0
 15 14  2  0
 14 18  1  0
 18 17  2  0
 17 16  1  0
 16 12  2  0
 12 11  1  0
 11 10  1  0
 10  9  1  0
  9  2  1  0
  3  2  2  0
  2  1  2  0
  4  2  1  0
  4  8  2  0
  8  7  1  0
  7  6  2  0
  6  5  1  0
  5  4  1  0
 13 12  1  0
 14 13  1  0
M  END
>  <id>  (186) 
186

>  <inchikey>  (186) 
CZVHMIQYFCZUOC-UHFFFAOYSA-N

>  <alias>  (186) 
B1307a

>  <smiles>  (186) 
O=c1ccnc(CCNS(=O)(=O)c2ccns2)[nH]1

>  <path>  (186) 
/opt/xchem-fragalysis-2/maxwin/BulkDock/TARGETS/D68EV3C/aligned_files/B1307a/B1307a.pdb

>  <distance_score>  (186) 
None

>  <energy_score>  (186) 
None

>  <compound>  (186) 
CZVHMIQYFCZUOC-UHFFFAOYSA-N

>  <compound_id>  (186) 
146

>  <target>  (186) 
D68EV3C

>  <tags>  (186) 
['BAD count', '[Other] upload_1 2025-02-11', '[Other] iter1_frags', 'hits', 'MEDIOCRE count', 'Main status', 'GOOD count']

>  <inspirations>  (186) 
None

>  <subsites>  (186) 
None

>  <reference>  (186) 


>  <observation_longname>  (186) 
D68EV3CPROB-x1307_A_301_v1

>  <ConformerSites alias>  (186) 
1a - 7gp9/A/201

>  <CanonSites alias>  (186) 
1 - 7gp9/A/201/1

>  <CrystalformSites alias>  (186) 
F1f - 0446/A/209

>  <Quatassemblies alias>  (186) 
A1 - monomer

>  <Crystalforms alias>  (186) 
F1 - D68_3C_PROB

>  <ConformerSites upload name>  (186) 
1a - 7gp9/A/201

>  <CanonSites upload name>  (186) 
1 - 7gp9/A/201/1

>  <CrystalformSites upload name>  (186) 
F1f - D68EV3CPROB-x0446/A/209/1

>  <Quatassemblies upload name>  (186) 
A1 - monomer

>  <Crystalforms upload name>  (186) 
F1 - D68_3C_PROB

>  <ConformerSites short tag>  (186) 
1a - 7gp9/A/201

>  <CanonSites short tag>  (186) 
1 - 7gp9/A/201/1

>  <CrystalformSites short tag>  (186) 
F1f - 0446/A/209

>  <Quatassemblies short tag>  (186) 
A1 - monomer

>  <Crystalforms short tag>  (186) 
F1 - D68_3C_PROB

>  <Centroid res>  (186) 
7gp9/A/163/A_v1

>  <Experiment code>  (186) 
D68EV3CPROB-x1307

>  <Pose>  (186) 
B1307a

$$$$
B1307b
     RDKit          3D

 18 19  0  0  0  0  0  0  0  0999 V2000
   -2.1720   -3.3740   31.4000 O   0  0  0  0  0  0  0  0  0  0  0  0
   -1.0900   -2.4480   31.5090 S   0  0  0  0  0  0  0  0  0  0  0  0
   -0.9470   -1.6710   32.7010 O   0  0  0  0  0  0  0  0  0  0  0  0
   -1.2320   -1.3220   30.1750 C   0  0  0  0  0  0  0  0  0  0  0  0
   -1.0950    0.3140   30.2300 S   0  0  0  0  0  0  0  0  0  0  0  0
   -1.3870    0.5510   28.6090 N   0  0  0  0  0  0  0  0  0  0  0  0
   -1.5880   -0.6330   28.0280 C   0  0  0  0  0  0  0  0  0  0  0  0
   -1.5020   -1.7210   28.8920 C   0  0  0  0  0  0  0  0  0  0  0  0
    0.2810   -3.2790   31.3070 N   0  0  0  0  0  0  0  0  0  0  0  0
    0.5100   -4.0730   30.0910 C   0  0  0  0  0  0  0  0  0  0  0  0
    1.2110   -5.3840   30.3970 C   0  0  0  0  0  0  0  0  0  0  0  0
    0.5250   -6.1390   31.4840 C   0  0  0  0  0  0  0  0  0  0  0  0
   -0.3980   -7.0710   31.0910 N   0  0  0  0  0  0  0  0  0  0  0  0
   -1.1630   -7.8050   31.9770 C   0  0  0  0  0  0  0  0  0  0  0  0
   -1.9970   -8.5900   31.5420 O   0  0  0  0  0  0  0  0  0  0  0  0
    0.7520   -5.9120   32.7370 N   0  0  0  0  0  0  0  0  0  0  0  0
    0.0290   -6.6150   33.6640 C   0  0  0  0  0  0  0  0  0  0  0  0
   -0.9160   -7.5380   33.3700 C   0  0  0  0  0  0  0  0  0  0  0  0
 15 14  2  0
 14 18  1  0
 18 17  2  0
 17 16  1  0
 16 12  2  0
 12 11  1  0
 11 10  1  0
 10  9  1  0
  9  2  1  0
  3  2  2  0
  2  1  2  0
  4  2  1  0
  4  8  2  0
  8  7  1  0
  7  6  2  0
  6  5  1  0
  5  4  1  0
 13 12  1  0
 14 13  1  0
M  END
>  <id>  (187) 
187

>  <inchikey>  (187) 
CZVHMIQYFCZUOC-UHFFFAOYSA-N

>  <alias>  (187) 
B1307b

>  <smiles>  (187) 
O=c1ccnc(CCNS(=O)(=O)c2ccns2)[nH]1

>  <path>  (187) 
/opt/xchem-fragalysis-2/maxwin/BulkDock/TARGETS/D68EV3C/aligned_files/B1307b/B1307b_hippo.pdb

>  <distance_score>  (187) 
None

>  <energy_score>  (187) 
None

>  <compound>  (187) 
CZVHMIQYFCZUOC-UHFFFAOYSA-N

>  <compound_id>  (187) 
146

>  <target>  (187) 
D68EV3C

>  <tags>  (187) 
['BAD count', '[Other] upload_1 2025-02-11', 'hits', 'MEDIOCRE count', 'Main status', 'GOOD count']

>  <inspirations>  (187) 
None

>  <subsites>  (187) 
None

>  <reference>  (187) 


>  <observation_longname>  (187) 
D68EV3CPROB-x1307_B_301_v1

>  <ConformerSites alias>  (187) 
1a - 7gp9/A/201

>  <CanonSites alias>  (187) 
1 - 7gp9/A/201/1

>  <CrystalformSites alias>  (187) 
F1e - 0436/B/301

>  <Quatassemblies alias>  (187) 
A1 - monomer

>  <Crystalforms alias>  (187) 
F1 - D68_3C_PROB

>  <ConformerSites upload name>  (187) 
1a - 7gp9/A/201

>  <CanonSites upload name>  (187) 
1 - 7gp9/A/201/1

>  <CrystalformSites upload name>  (187) 
F1e - D68EV3CPROB-x0436/B/301/1

>  <Quatassemblies upload name>  (187) 
A1 - monomer

>  <Crystalforms upload name>  (187) 
F1 - D68_3C_PROB

>  <ConformerSites short tag>  (187) 
1a - 7gp9/A/201

>  <CanonSites short tag>  (187) 
1 - 7gp9/A/201/1

>  <CrystalformSites short tag>  (187) 
F1e - 0436/B/301

>  <Quatassemblies short tag>  (187) 
A1 - monomer

>  <Crystalforms short tag>  (187) 
F1 - D68_3C_PROB

>  <Centroid res>  (187) 
7gp9/A/163/A_v1

>  <Experiment code>  (187) 
D68EV3CPROB-x1307

>  <Pose>  (187) 
B1307a

$$$$
B1361a
     RDKit          3D

 20 21  0  0  0  0  0  0  0  0999 V2000
   -2.3530   -3.0450   31.3800 O   0  0  0  0  0  0  0  0  0  0  0  0
   -1.2920   -2.0830   31.3410 S   0  0  0  0  0  0  0  0  0  0  0  0
   -1.0960   -1.2220   32.4690 O   0  0  0  0  0  0  0  0  0  0  0  0
   -1.5270   -1.0700   29.9190 C   0  0  0  0  0  0  0  0  0  0  0  0
   -1.3130    0.2980   29.9990 C   0  0  0  0  0  0  0  0  0  0  0  0
   -1.5290    1.0890   28.8830 C   0  0  0  0  0  0  0  0  0  0  0  0
   -1.9690    0.5160   27.6980 C   0  0  0  0  0  0  0  0  0  0  0  0
   -2.2820    1.2950   26.6180 O   0  0  0  0  0  0  0  0  0  0  0  0
   -2.1590   -0.8560   27.6210 C   0  0  0  0  0  0  0  0  0  0  0  0
   -1.9390   -1.6510   28.7310 C   0  0  0  0  0  0  0  0  0  0  0  0
    0.0880   -2.8870   31.1210 N   0  0  0  0  0  0  0  0  0  0  0  0
    0.2710   -3.7500   29.9490 C   0  0  0  0  0  0  0  0  0  0  0  0
    1.0590   -4.9890   30.3170 C   0  0  0  0  0  0  0  0  0  0  0  0
    0.3100   -5.7580   31.3620 C   0  0  0  0  0  0  0  0  0  0  0  0
   -0.5150   -6.7200   30.9310 N   0  0  0  0  0  0  0  0  0  0  0  0
   -1.1300   -7.4580   31.8750 C   0  0  0  0  0  0  0  0  0  0  0  0
   -1.8740   -8.4400   31.4740 O   0  0  0  0  0  0  0  0  0  0  0  0
   -0.9580   -7.2300   33.2420 C   0  0  0  0  0  0  0  0  0  0  0  0
   -0.0910   -6.2040   33.5660 C   0  0  0  0  0  0  0  0  0  0  0  0
    0.5560   -5.4580   32.6610 N   0  0  0  0  0  0  0  0  0  0  0  0
  3  2  2  0
  2  1  2  0
 11  2  1  0
 12 11  1  0
 13 12  1  0
 14 13  1  0
 14 20  2  0
 20 19  1  0
 19 18  2  0
 18 16  1  0
 17 16  1  0
 16 15  2  0
 15 14  1  0
  4  2  1  0
  4 10  2  0
 10  9  1  0
  9  7  2  0
  8  7  1  0
  7  6  1  0
  6  5  2  0
  5  4  1  0
M  END
>  <id>  (188) 
188

>  <inchikey>  (188) 
CINSIERXHZAWIH-UHFFFAOYSA-N

>  <alias>  (188) 
B1361a

>  <smiles>  (188) 
O=S(=O)(NCCc1nccc(O)n1)c1ccc(O)cc1

>  <path>  (188) 
/opt/xchem-fragalysis-2/maxwin/BulkDock/TARGETS/D68EV3C/aligned_files/B1361a/B1361a_hippo.pdb

>  <distance_score>  (188) 
None

>  <energy_score>  (188) 
None

>  <compound>  (188) 
CINSIERXHZAWIH-UHFFFAOYSA-N

>  <compound_id>  (188) 
147

>  <target>  (188) 
D68EV3C

>  <tags>  (188) 
['BAD count', '[Other] upload_1 2025-02-11', '[Other] iter1_frags', 'hits', 'MEDIOCRE count', 'Main status', 'GOOD count']

>  <inspirations>  (188) 
None

>  <subsites>  (188) 
None

>  <reference>  (188) 


>  <observation_longname>  (188) 
D68EV3CPROB-x1361_A_308_v1

>  <ConformerSites alias>  (188) 
1a - 7gp9/A/201

>  <CanonSites alias>  (188) 
1 - 7gp9/A/201/1

>  <CrystalformSites alias>  (188) 
F1e - 0436/B/301

>  <Quatassemblies alias>  (188) 
A1 - monomer

>  <Crystalforms alias>  (188) 
F1 - D68_3C_PROB

>  <ConformerSites upload name>  (188) 
1a - 7gp9/A/201

>  <CanonSites upload name>  (188) 
1 - 7gp9/A/201/1

>  <CrystalformSites upload name>  (188) 
F1e - D68EV3CPROB-x0436/B/301/1

>  <Quatassemblies upload name>  (188) 
A1 - monomer

>  <Crystalforms upload name>  (188) 
F1 - D68_3C_PROB

>  <ConformerSites short tag>  (188) 
1a - 7gp9/A/201

>  <CanonSites short tag>  (188) 
1 - 7gp9/A/201/1

>  <CrystalformSites short tag>  (188) 
F1e - 0436/B/301

>  <Quatassemblies short tag>  (188) 
A1 - monomer

>  <Crystalforms short tag>  (188) 
F1 - D68_3C_PROB

>  <Centroid res>  (188) 
7gp9/A/163/A_v1

>  <Experiment code>  (188) 
D68EV3CPROB-x1361

>  <Pose>  (188) 
B1361a

$$$$
B1361b
     RDKit          3D

 20 21  0  0  0  0  0  0  0  0999 V2000
   -2.2680   -3.3200   31.5680 O   0  0  0  0  0  0  0  0  0  0  0  0
   -1.1870   -2.3830   31.5630 S   0  0  0  0  0  0  0  0  0  0  0  0
   -1.0070   -1.5180   32.6890 O   0  0  0  0  0  0  0  0  0  0  0  0
   -1.3670   -1.3710   30.1320 C   0  0  0  0  0  0  0  0  0  0  0  0
   -1.0090   -0.0340   30.1840 C   0  0  0  0  0  0  0  0  0  0  0  0
   -1.2100    0.7700   29.0760 C   0  0  0  0  0  0  0  0  0  0  0  0
   -1.7780    0.2390   27.9230 C   0  0  0  0  0  0  0  0  0  0  0  0
   -2.0040    1.0270   26.8280 O   0  0  0  0  0  0  0  0  0  0  0  0
   -2.1310   -1.1040   27.8810 C   0  0  0  0  0  0  0  0  0  0  0  0
   -1.9150   -1.9120   28.9830 C   0  0  0  0  0  0  0  0  0  0  0  0
    0.1790   -3.2350   31.4010 N   0  0  0  0  0  0  0  0  0  0  0  0
    0.4380   -4.0530   30.2020 C   0  0  0  0  0  0  0  0  0  0  0  0
    1.2430   -5.3180   30.5300 C   0  0  0  0  0  0  0  0  0  0  0  0
    0.5010   -6.1690   31.5130 C   0  0  0  0  0  0  0  0  0  0  0  0
   -0.3850   -7.0450   31.0210 N   0  0  0  0  0  0  0  0  0  0  0  0
   -1.1240   -7.7300   31.9260 C   0  0  0  0  0  0  0  0  0  0  0  0
   -2.0090   -8.5910   31.4640 O   0  0  0  0  0  0  0  0  0  0  0  0
   -0.9810   -7.5530   33.3030 C   0  0  0  0  0  0  0  0  0  0  0  0
   -0.0220   -6.6340   33.6840 C   0  0  0  0  0  0  0  0  0  0  0  0
    0.7320   -5.9380   32.8240 N   0  0  0  0  0  0  0  0  0  0  0  0
  3  2  2  0
  2  1  2  0
 11  2  1  0
 12 11  1  0
 13 12  1  0
 14 13  1  0
 14 20  2  0
 20 19  1  0
 19 18  2  0
 18 16  1  0
 17 16  1  0
 16 15  2  0
 15 14  1  0
  4  2  1  0
  4 10  2  0
 10  9  1  0
  9  7  2  0
  8  7  1  0
  7  6  1  0
  6  5  2  0
  5  4  1  0
M  END
>  <id>  (189) 
189

>  <inchikey>  (189) 
CINSIERXHZAWIH-UHFFFAOYSA-N

>  <alias>  (189) 
B1361b

>  <smiles>  (189) 
O=S(=O)(NCCc1nccc(O)n1)c1ccc(O)cc1

>  <path>  (189) 
/opt/xchem-fragalysis-2/maxwin/BulkDock/TARGETS/D68EV3C/aligned_files/B1361b/B1361b.pdb

>  <distance_score>  (189) 
None

>  <energy_score>  (189) 
None

>  <compound>  (189) 
CINSIERXHZAWIH-UHFFFAOYSA-N

>  <compound_id>  (189) 
147

>  <target>  (189) 
D68EV3C

>  <tags>  (189) 
['BAD count', '[Other] upload_1 2025-02-11', 'hits', 'MEDIOCRE count', 'Main status', 'GOOD count']

>  <inspirations>  (189) 
None

>  <subsites>  (189) 
None

>  <reference>  (189) 


>  <observation_longname>  (189) 
D68EV3CPROB-x1361_A_401_v1

>  <ConformerSites alias>  (189) 
1a - 7gp9/A/201

>  <CanonSites alias>  (189) 
1 - 7gp9/A/201/1

>  <CrystalformSites alias>  (189) 
F1f - 0446/A/209

>  <Quatassemblies alias>  (189) 
A1 - monomer

>  <Crystalforms alias>  (189) 
F1 - D68_3C_PROB

>  <ConformerSites upload name>  (189) 
1a - 7gp9/A/201

>  <CanonSites upload name>  (189) 
1 - 7gp9/A/201/1

>  <CrystalformSites upload name>  (189) 
F1f - D68EV3CPROB-x0446/A/209/1

>  <Quatassemblies upload name>  (189) 
A1 - monomer

>  <Crystalforms upload name>  (189) 
F1 - D68_3C_PROB

>  <ConformerSites short tag>  (189) 
1a - 7gp9/A/201

>  <CanonSites short tag>  (189) 
1 - 7gp9/A/201/1

>  <CrystalformSites short tag>  (189) 
F1f - 0446/A/209

>  <Quatassemblies short tag>  (189) 
A1 - monomer

>  <Crystalforms short tag>  (189) 
F1 - D68_3C_PROB

>  <Centroid res>  (189) 
7gp9/A/163/A_v1

>  <Experiment code>  (189) 
D68EV3CPROB-x1361

>  <Pose>  (189) 
B1361a

$$$$
B1368a
     RDKit          3D

 19 20  0  0  0  0  0  0  0  0999 V2000
   -1.7960   -3.8550   31.5150 O   0  0  0  0  0  0  0  0  0  0  0  0
   -0.9200   -2.7400   31.6770 S   0  0  0  0  0  0  0  0  0  0  0  0
   -0.7690   -2.1440   32.9670 O   0  0  0  0  0  0  0  0  0  0  0  0
   -1.2560   -1.6060   30.5740 N   0  0  0  0  0  0  0  0  0  0  0  0
   -0.7620   -0.2170   30.7000 C   0  0  0  0  0  0  0  0  0  0  0  0
   -0.1560    0.0250   29.3360 C   0  0  0  0  0  0  0  0  0  0  0  0
   -1.1060   -0.6830   28.4020 C   0  0  0  0  0  0  0  0  0  0  0  0
   -1.5140   -1.9460   29.1550 C   0  0  0  0  0  0  0  0  0  0  0  0
    0.5560   -3.1420   31.1130 N   0  0  0  0  0  0  0  0  0  0  0  0
    1.4560   -4.0960   31.7680 C   0  0  0  0  0  0  0  0  0  0  0  0
    1.3950   -5.4620   31.0850 C   0  0  0  0  0  0  0  0  0  0  0  0
    0.5220   -6.3500   31.9200 C   0  0  0  0  0  0  0  0  0  0  0  0
   -0.3010   -7.1750   31.2650 N   0  0  0  0  0  0  0  0  0  0  0  0
   -1.1630   -7.8420   32.0380 C   0  0  0  0  0  0  0  0  0  0  0  0
   -2.0450   -8.5730   31.4320 O   0  0  0  0  0  0  0  0  0  0  0  0
   -1.2020   -7.7250   33.4440 C   0  0  0  0  0  0  0  0  0  0  0  0
    0.5860   -6.1690   33.2430 N   0  0  0  0  0  0  0  0  0  0  0  0
   -0.2800   -6.8570   34.0040 C   0  0  0  0  0  0  0  0  0  0  0  0
   -0.2100   -6.6240   35.4830 C   0  0  0  0  0  0  0  0  0  0  0  0
 19 18  1  0
 18 16  2  0
 16 14  1  0
 15 14  1  0
 14 13  2  0
 13 12  1  0
 12 11  1  0
 11 10  1  0
 10  9  1  0
  9  2  1  0
  3  2  2  0
  2  1  2  0
  4  2  1  0
  4  8  1  0
  8  7  1  0
  7  6  1  0
  6  5  1  0
  5  4  1  0
 17 12  2  0
 18 17  1  0
M  END
>  <id>  (190) 
190

>  <inchikey>  (190) 
MHXZCOWLEYXUSF-UHFFFAOYSA-N

>  <alias>  (190) 
B1368a

>  <smiles>  (190) 
Cc1cc(O)nc(CCNS(=O)(=O)N2CCCC2)n1

>  <path>  (190) 
/opt/xchem-fragalysis-2/maxwin/BulkDock/TARGETS/D68EV3C/aligned_files/B1368a/B1368a.pdb

>  <distance_score>  (190) 
None

>  <energy_score>  (190) 
None

>  <compound>  (190) 
MHXZCOWLEYXUSF-UHFFFAOYSA-N

>  <compound_id>  (190) 
148

>  <target>  (190) 
D68EV3C

>  <tags>  (190) 
['BAD count', '[Other] upload_1 2025-02-11', '[Other] iter1_frags', 'hits', 'MEDIOCRE count', 'Main status', 'GOOD count']

>  <inspirations>  (190) 
None

>  <subsites>  (190) 
None

>  <reference>  (190) 


>  <observation_longname>  (190) 
D68EV3CPROB-x1368_A_308_v1

>  <ConformerSites alias>  (190) 
1a - 7gp9/A/201

>  <CanonSites alias>  (190) 
1 - 7gp9/A/201/1

>  <CrystalformSites alias>  (190) 
F1f - 0446/A/209

>  <Quatassemblies alias>  (190) 
A1 - monomer

>  <Crystalforms alias>  (190) 
F1 - D68_3C_PROB

>  <ConformerSites upload name>  (190) 
1a - 7gp9/A/201

>  <CanonSites upload name>  (190) 
1 - 7gp9/A/201/1

>  <CrystalformSites upload name>  (190) 
F1f - D68EV3CPROB-x0446/A/209/1

>  <Quatassemblies upload name>  (190) 
A1 - monomer

>  <Crystalforms upload name>  (190) 
F1 - D68_3C_PROB

>  <ConformerSites short tag>  (190) 
1a - 7gp9/A/201

>  <CanonSites short tag>  (190) 
1 - 7gp9/A/201/1

>  <CrystalformSites short tag>  (190) 
F1f - 0446/A/209

>  <Quatassemblies short tag>  (190) 
A1 - monomer

>  <Crystalforms short tag>  (190) 
F1 - D68_3C_PROB

>  <Centroid res>  (190) 
7gp9/A/163/A_v1

>  <Experiment code>  (190) 
D68EV3CPROB-x1368

>  <Pose>  (190) 
B1368a

$$$$
B1396a
     RDKit          3D

 20 21  0  0  0  0  0  0  0  0999 V2000
   17.5600   -3.6920   18.2460 O   0  0  0  0  0  0  0  0  0  0  0  0
   18.2890   -2.4610   18.0850 S   0  0  0  0  0  0  0  0  0  0  0  0
   19.4530   -2.2460   18.9170 O   0  0  0  0  0  0  0  0  0  0  0  0
   18.7500   -2.3020   16.3910 C   0  0  0  0  0  0  0  0  0  0  0  0
   18.2050   -3.1640   15.4510 C   0  0  0  0  0  0  0  0  0  0  0  0
   18.5500   -3.0110   14.1140 C   0  0  0  0  0  0  0  0  0  0  0  0
   19.4240   -2.0110   13.7260 C   0  0  0  0  0  0  0  0  0  0  0  0
   19.9550   -1.1590   14.6710 C   0  0  0  0  0  0  0  0  0  0  0  0
   19.6220   -1.2960   16.0110 C   0  0  0  0  0  0  0  0  0  0  0  0
   17.1590   -1.1120   18.3860 C   0  0  0  0  0  0  0  0  0  0  0  0
   16.0590   -1.0520   17.3450 C   0  0  0  0  0  0  0  0  0  0  0  0
   16.1860   -0.4040   16.3070 O   0  0  0  0  0  0  0  0  0  0  0  0
   14.9510   -1.7560   17.6730 N   0  0  0  0  0  0  0  0  0  0  0  0
   13.7900   -1.8970   16.8870 C   0  0  0  0  0  0  0  0  0  0  0  0
   13.1710   -3.1530   16.8170 C   0  0  0  0  0  0  0  0  0  0  0  0
   13.7440   -4.3590   17.5170 C   0  0  0  0  0  0  0  0  0  0  0  0
   13.2580   -0.7970   16.2150 C   0  0  0  0  0  0  0  0  0  0  0  0
   12.1030   -0.9430   15.4680 C   0  0  0  0  0  0  0  0  0  0  0  0
   11.4810   -2.1670   15.3880 C   0  0  0  0  0  0  0  0  0  0  0  0
   12.0080   -3.2600   16.0520 C   0  0  0  0  0  0  0  0  0  0  0  0
 16 15  1  0
 15 20  2  0
 20 19  1  0
 19 18  2  0
 18 17  1  0
 17 14  2  0
 15 14  1  0
 14 13  1  0
 13 11  1  0
 12 11  2  0
 11 10  1  0
 10  2  1  0
  3  2  2  0
  2  1  2  0
  4  2  1  0
  4  9  2  0
  9  8  1  0
  8  7  2  0
  7  6  1  0
  6  5  2  0
  5  4  1  0
M  END
>  <id>  (191) 
191

>  <inchikey>  (191) 
QEKMROMAFDQUHE-UHFFFAOYSA-N

>  <alias>  (191) 
B1396a

>  <smiles>  (191) 
Cc1ccccc1NC(=O)CS(=O)(=O)c1ccccc1

>  <path>  (191) 
/opt/xchem-fragalysis-2/maxwin/BulkDock/TARGETS/D68EV3C/aligned_files/B1396a/B1396a.pdb

>  <distance_score>  (191) 
None

>  <energy_score>  (191) 
None

>  <compound>  (191) 
QEKMROMAFDQUHE-UHFFFAOYSA-N

>  <compound_id>  (191) 
149

>  <target>  (191) 
D68EV3C

>  <tags>  (191) 
['BAD count', '[Other] upload_1 2025-02-11', 'hits', 'MEDIOCRE count', 'Main status', 'GOOD count']

>  <inspirations>  (191) 
None

>  <subsites>  (191) 
None

>  <reference>  (191) 


>  <observation_longname>  (191) 
D68EV3CPROB-x1396_A_401_v1

>  <ConformerSites alias>  (191) 
2a - 7gon/B/201

>  <CanonSites alias>  (191) 
2 - 7gon/B/201/1

>  <CrystalformSites alias>  (191) 
F1k - 0693/A/209

>  <Quatassemblies alias>  (191) 
A1 - monomer

>  <Crystalforms alias>  (191) 
F1 - D68_3C_PROB

>  <ConformerSites upload name>  (191) 
2a - 7gon/B/201

>  <CanonSites upload name>  (191) 
2 - 7gon/B/201/1

>  <CrystalformSites upload name>  (191) 
F1k - D68EV3CPROB-x0693/A/209/1

>  <Quatassemblies upload name>  (191) 
A1 - monomer

>  <Crystalforms upload name>  (191) 
F1 - D68_3C_PROB

>  <ConformerSites short tag>  (191) 
2a - 7gon/B/201

>  <CanonSites short tag>  (191) 
2 - 7gon/B/201/1

>  <CrystalformSites short tag>  (191) 
F1k - 0693/A/209

>  <Quatassemblies short tag>  (191) 
A1 - monomer

>  <Crystalforms short tag>  (191) 
F1 - D68_3C_PROB

>  <Centroid res>  (191) 
7gon/B/47/B_v1

>  <Experiment code>  (191) 
D68EV3CPROB-x1396

>  <Pose>  (191) 
B1396a

$$$$
B1403a
     RDKit          3D

 17 18  0  0  0  0  0  0  0  0999 V2000
  -21.7010   -4.0490   17.6260 O   0  0  0  0  0  0  0  0  0  0  0  0
  -21.8850   -2.6870   17.2360 S   0  0  0  0  0  0  0  0  0  0  0  0
  -21.2050   -1.6500   17.9480 O   0  0  0  0  0  0  0  0  0  0  0  0
  -21.5230   -2.5700   15.6210 N   0  0  0  0  0  0  0  0  0  0  0  0
  -22.0180   -3.6250   14.7140 C   0  0  0  0  0  0  0  0  0  0  0  0
  -21.3090   -3.5160   13.3770 C   0  0  0  0  0  0  0  0  0  0  0  0
  -21.4820   -2.1750   12.7950 N   0  0  0  0  0  0  0  0  0  0  0  0
  -20.9500   -1.1600   13.7090 C   0  0  0  0  0  0  0  0  0  0  0  0
  -21.6600   -1.2180   15.0440 C   0  0  0  0  0  0  0  0  0  0  0  0
  -23.4830   -2.3670   17.3010 N   0  0  0  0  0  0  0  0  0  0  0  0
  -24.4990   -3.2250   17.9010 C   0  0  0  0  0  0  0  0  0  0  0  0
  -25.7570   -3.3640   17.1040 C   0  0  0  0  0  0  0  0  0  0  0  0
  -26.1780   -2.6540   15.9690 C   0  0  0  0  0  0  0  0  0  0  0  0
  -26.6470   -4.2350   17.4820 N   0  0  0  0  0  0  0  0  0  0  0  0
  -27.7180   -4.0950   16.5640 O   0  0  0  0  0  0  0  0  0  0  0  0
  -27.3940   -3.1420   15.6800 C   0  0  0  0  0  0  0  0  0  0  0  0
  -28.4090   -2.8510   14.6370 C   0  0  0  0  0  0  0  0  0  0  0  0
 17 16  1  0
 16 13  2  0
 13 12  1  0
 12 11  1  0
 11 10  1  0
 10  2  1  0
  3  2  2  0
  2  1  2  0
  4  2  1  0
  4  9  1  0
  9  8  1  0
  8  7  1  0
  7  6  1  0
  6  5  1  0
  5  4  1  0
 14 12  2  0
 15 14  1  0
 16 15  1  0
M  END
>  <id>  (192) 
192

>  <inchikey>  (192) 
FUOYHOBHGJQDHH-UHFFFAOYSA-N

>  <alias>  (192) 
B1403a

>  <smiles>  (192) 
Cc1cc(CNS(=O)(=O)N2CCNCC2)no1

>  <path>  (192) 
/opt/xchem-fragalysis-2/maxwin/BulkDock/TARGETS/D68EV3C/aligned_files/B1403a/B1403a.pdb

>  <distance_score>  (192) 
None

>  <energy_score>  (192) 
None

>  <compound>  (192) 
FUOYHOBHGJQDHH-UHFFFAOYSA-N

>  <compound_id>  (192) 
150

>  <target>  (192) 
D68EV3C

>  <tags>  (192) 
['BAD count', '[Other] upload_1 2025-02-11', 'hits', 'MEDIOCRE count', 'Main status', 'GOOD count']

>  <inspirations>  (192) 
None

>  <subsites>  (192) 
None

>  <reference>  (192) 


>  <observation_longname>  (192) 
D68EV3CPROB-x1403_A_308_v1

>  <ConformerSites alias>  (192) 
6a - B0798/A/308

>  <CanonSites alias>  (192) 
6 - B0798/A/308/1

>  <CrystalformSites alias>  (192) 
F1x - B1403/A/308

>  <Quatassemblies alias>  (192) 
A1 - monomer

>  <Crystalforms alias>  (192) 
F1 - D68_3C_PROB

>  <ConformerSites upload name>  (192) 
6a - D68EV3CPROB-x0798/A/308

>  <CanonSites upload name>  (192) 
6 - D68EV3CPROB-x0798/A/308/1

>  <CrystalformSites upload name>  (192) 
F1x - D68EV3CPROB-x1403/A/308/1

>  <Quatassemblies upload name>  (192) 
A1 - monomer

>  <Crystalforms upload name>  (192) 
F1 - D68_3C_PROB

>  <ConformerSites short tag>  (192) 
6a - B0798/A/308

>  <CanonSites short tag>  (192) 
6 - B0798/A/308/1

>  <CrystalformSites short tag>  (192) 
F1x - B1403/A/308

>  <Quatassemblies short tag>  (192) 
A1 - monomer

>  <Crystalforms short tag>  (192) 
F1 - D68_3C_PROB

>  <Centroid res>  (192) 
D68EV3CPROB-x0798/A/175/A_v1

>  <Experiment code>  (192) 
D68EV3CPROB-x1403

>  <Pose>  (192) 
B1403a

$$$$
B1409a
     RDKit          3D

 16 17  0  0  0  0  0  0  0  0999 V2000
  -13.5050   -7.2300   39.4560 O   0  0  0  0  0  0  0  0  0  0  0  0
  -13.8050   -8.3840   39.7570 C   0  0  0  0  0  0  0  0  0  0  0  0
  -13.5590   -8.9690   40.9460 N   0  0  0  0  0  0  0  0  0  0  0  0
  -13.8990  -10.3850   40.9960 C   0  0  0  0  0  0  0  0  0  0  0  0
  -14.4500  -10.6020   39.6180 C   0  0  0  0  0  0  0  0  0  0  0  0
  -15.0140  -11.7670   39.0870 C   0  0  0  0  0  0  0  0  0  0  0  0
  -15.0930  -13.0460   39.8810 C   0  0  0  0  0  0  0  0  0  0  0  0
  -14.4190   -9.4280   38.8990 C   0  0  0  0  0  0  0  0  0  0  0  0
  -14.9410   -9.3400   37.6140 C   0  0  0  0  0  0  0  0  0  0  0  0
  -15.5010  -10.4960   37.0780 C   0  0  0  0  0  0  0  0  0  0  0  0
  -15.5390  -11.6920   37.7960 C   0  0  0  0  0  0  0  0  0  0  0  0
  -16.0140  -10.4650   35.7520 O   0  0  0  0  0  0  0  0  0  0  0  0
  -15.1230  -11.0430   34.5820 S   0  0  0  0  0  0  0  0  0  0  0  0
  -13.8750  -10.4260   34.6070 O   0  0  0  0  0  0  0  0  0  0  0  0
  -15.2530  -12.4390   34.6470 O   0  0  0  0  0  0  0  0  0  0  0  0
  -15.8210  -10.5970   33.3130 F   0  0  0  0  0  0  0  0  0  0  0  0
  7  6  1  0
  6 11  2  0
 11 10  1  0
 12 10  1  0
 13 12  1  0
 14 13  2  0
 15 13  2  0
 16 13  1  0
 10  9  2  0
  9  8  1  0
  8  5  2  0
  6  5  1  0
  5  4  1  0
  4  3  1  0
  3  2  1  0
  8  2  1  0
  2  1  2  0
M  END
>  <id>  (193) 
193

>  <inchikey>  (193) 
BMZUBOZNVNNRSL-UHFFFAOYSA-N

>  <alias>  (193) 
B1409a

>  <smiles>  (193) 
Cc1cc(OS(=O)(=O)F)cc2c1CNC2=O

>  <path>  (193) 
/opt/xchem-fragalysis-2/maxwin/BulkDock/TARGETS/D68EV3C/aligned_files/B1409a/B1409a.pdb

>  <distance_score>  (193) 
None

>  <energy_score>  (193) 
None

>  <compound>  (193) 
BMZUBOZNVNNRSL-UHFFFAOYSA-N

>  <compound_id>  (193) 
151

>  <target>  (193) 
D68EV3C

>  <tags>  (193) 
['BAD count', '[Other] upload_1 2025-02-11', 'hits', 'MEDIOCRE count', 'Main status', 'GOOD count']

>  <inspirations>  (193) 
None

>  <subsites>  (193) 
None

>  <reference>  (193) 


>  <observation_longname>  (193) 
D68EV3CPROB-x1409_A_308_v1

>  <ConformerSites alias>  (193) 
12a - B1035/A/308

>  <CanonSites alias>  (193) 
12 - B1035/A/308/1

>  <CrystalformSites alias>  (193) 
F1ai - B1035/A/308

>  <Quatassemblies alias>  (193) 
A1 - monomer

>  <Crystalforms alias>  (193) 
F1 - D68_3C_PROB

>  <ConformerSites upload name>  (193) 
12a - D68EV3CPROB-x1035/A/308

>  <CanonSites upload name>  (193) 
12 - D68EV3CPROB-x1035/A/308/1

>  <CrystalformSites upload name>  (193) 
F1ai - D68EV3CPROB-x1035/A/308/1

>  <Quatassemblies upload name>  (193) 
A1 - monomer

>  <Crystalforms upload name>  (193) 
F1 - D68_3C_PROB

>  <ConformerSites short tag>  (193) 
12a - B1035/A/308

>  <CanonSites short tag>  (193) 
12 - B1035/A/308/1

>  <CrystalformSites short tag>  (193) 
F1ai - B1035/A/308

>  <Quatassemblies short tag>  (193) 
A1 - monomer

>  <Crystalforms short tag>  (193) 
F1 - D68_3C_PROB

>  <Centroid res>  (193) 
D68EV3CPROB-x1035/B/138/A_v1

>  <Experiment code>  (193) 
D68EV3CPROB-x1409

>  <Pose>  (193) 
B1409a

$$$$
B1456a
     RDKit          3D

 20 21  0  0  0  0  0  0  0  0999 V2000
   -2.2940   -3.3510   31.4480 O   0  0  0  0  0  0  0  0  0  0  0  0
   -1.2190   -2.4440   31.7000 S   0  0  0  0  0  0  0  0  0  0  0  0
   -1.1950   -1.6890   32.9150 O   0  0  0  0  0  0  0  0  0  0  0  0
   -1.1250   -1.2920   30.4940 C   0  0  0  0  0  0  0  0  0  0  0  0
   -1.6800   -1.4580   29.2250 N   0  0  0  0  0  0  0  0  0  0  0  0
   -1.4220   -0.2630   28.6340 N   0  0  0  0  0  0  0  0  0  0  0  0
   -1.9130   -0.0070   27.2880 C   0  0  0  0  0  0  0  0  0  0  0  0
   -0.7300    0.6140   29.4530 C   0  0  0  0  0  0  0  0  0  0  0  0
   -0.5330   -0.0250   30.6400 C   0  0  0  0  0  0  0  0  0  0  0  0
    0.1510   -3.3030   31.6510 N   0  0  0  0  0  0  0  0  0  0  0  0
    0.4920   -4.1110   30.4690 C   0  0  0  0  0  0  0  0  0  0  0  0
    1.2330   -5.3760   30.8630 C   0  0  0  0  0  0  0  0  0  0  0  0
    0.3610   -6.1970   31.7630 C   0  0  0  0  0  0  0  0  0  0  0  0
   -0.4260   -7.0920   31.1510 N   0  0  0  0  0  0  0  0  0  0  0  0
   -1.2360   -7.7980   31.9590 C   0  0  0  0  0  0  0  0  0  0  0  0
   -2.0040   -8.7050   31.4070 O   0  0  0  0  0  0  0  0  0  0  0  0
   -1.2650   -7.6100   33.3570 C   0  0  0  0  0  0  0  0  0  0  0  0
    0.4240   -5.9540   33.0790 N   0  0  0  0  0  0  0  0  0  0  0  0
   -0.3920   -6.6660   33.8740 C   0  0  0  0  0  0  0  0  0  0  0  0
   -0.3010   -6.3980   35.3460 C   0  0  0  0  0  0  0  0  0  0  0  0
 20 19  1  0
 19 17  2  0
 17 15  1  0
 16 15  1  0
 15 14  2  0
 14 13  1  0
 13 12  1  0
 12 11  1  0
 11 10  1  0
 10  2  1  0
  3  2  2  0
  2  1  2  0
  4  2  1  0
  4  9  1  0
  9  8  2  0
  8  6  1  0
  7  6  1  0
  6  5  1  0
  5  4  2  0
 18 13  2  0
 19 18  1  0
M  END
>  <id>  (194) 
194

>  <inchikey>  (194) 
VSFGQSDQUSDVDR-UHFFFAOYSA-N

>  <alias>  (194) 
B1456a

>  <smiles>  (194) 
Cc1cc(O)nc(CCNS(=O)(=O)c2ccn(C)n2)n1

>  <path>  (194) 
/opt/xchem-fragalysis-2/maxwin/BulkDock/TARGETS/D68EV3C/aligned_files/B1456a/B1456a.pdb

>  <distance_score>  (194) 
None

>  <energy_score>  (194) 
None

>  <compound>  (194) 
VSFGQSDQUSDVDR-UHFFFAOYSA-N

>  <compound_id>  (194) 
152

>  <target>  (194) 
D68EV3C

>  <tags>  (194) 
['BAD count', '[Other] upload_1 2025-02-11', '[Other] iter1_frags', 'hits', 'MEDIOCRE count', 'Main status', 'GOOD count']

>  <inspirations>  (194) 
None

>  <subsites>  (194) 
None

>  <reference>  (194) 


>  <observation_longname>  (194) 
D68EV3CPROB-x1456_A_308_v1

>  <ConformerSites alias>  (194) 
1a - 7gp9/A/201

>  <CanonSites alias>  (194) 
1 - 7gp9/A/201/1

>  <CrystalformSites alias>  (194) 
F1f - 0446/A/209

>  <Quatassemblies alias>  (194) 
A1 - monomer

>  <Crystalforms alias>  (194) 
F1 - D68_3C_PROB

>  <ConformerSites upload name>  (194) 
1a - 7gp9/A/201

>  <CanonSites upload name>  (194) 
1 - 7gp9/A/201/1

>  <CrystalformSites upload name>  (194) 
F1f - D68EV3CPROB-x0446/A/209/1

>  <Quatassemblies upload name>  (194) 
A1 - monomer

>  <Crystalforms upload name>  (194) 
F1 - D68_3C_PROB

>  <ConformerSites short tag>  (194) 
1a - 7gp9/A/201

>  <CanonSites short tag>  (194) 
1 - 7gp9/A/201/1

>  <CrystalformSites short tag>  (194) 
F1f - 0446/A/209

>  <Quatassemblies short tag>  (194) 
A1 - monomer

>  <Crystalforms short tag>  (194) 
F1 - D68_3C_PROB

>  <Centroid res>  (194) 
7gp9/A/163/A_v1

>  <Experiment code>  (194) 
D68EV3CPROB-x1456

>  <Pose>  (194) 
B1456a

$$$$
B1456b
     RDKit          3D

 20 21  0  0  0  0  0  0  0  0999 V2000
   -2.4510   -2.9470   31.1640 O   0  0  0  0  0  0  0  0  0  0  0  0
   -1.3690   -2.0300   31.3380 S   0  0  0  0  0  0  0  0  0  0  0  0
   -1.2360   -1.3300   32.5770 O   0  0  0  0  0  0  0  0  0  0  0  0
   -1.3470   -0.8700   30.1320 C   0  0  0  0  0  0  0  0  0  0  0  0
   -1.9490   -1.0440   28.8920 N   0  0  0  0  0  0  0  0  0  0  0  0
   -1.6920    0.1320   28.2650 N   0  0  0  0  0  0  0  0  0  0  0  0
   -2.1950    0.3480   26.9150 C   0  0  0  0  0  0  0  0  0  0  0  0
   -0.9660    1.0090   29.0360 C   0  0  0  0  0  0  0  0  0  0  0  0
   -0.7370    0.3910   30.2280 C   0  0  0  0  0  0  0  0  0  0  0  0
   -0.0010   -2.8600   31.1110 N   0  0  0  0  0  0  0  0  0  0  0  0
    0.1490   -3.7700   29.9690 C   0  0  0  0  0  0  0  0  0  0  0  0
    0.9760   -4.9900   30.3470 C   0  0  0  0  0  0  0  0  0  0  0  0
    0.2500   -5.8320   31.3520 C   0  0  0  0  0  0  0  0  0  0  0  0
   -0.5620   -6.7840   30.8720 N   0  0  0  0  0  0  0  0  0  0  0  0
   -1.1640   -7.5500   31.7990 C   0  0  0  0  0  0  0  0  0  0  0  0
   -1.9220   -8.5360   31.3830 O   0  0  0  0  0  0  0  0  0  0  0  0
   -0.9750   -7.3650   33.1780 C   0  0  0  0  0  0  0  0  0  0  0  0
    0.5060   -5.5770   32.6410 N   0  0  0  0  0  0  0  0  0  0  0  0
   -0.1070   -6.3510   33.5520 C   0  0  0  0  0  0  0  0  0  0  0  0
    0.2240   -6.0880   34.9850 C   0  0  0  0  0  0  0  0  0  0  0  0
 20 19  1  0
 19 17  2  0
 17 15  1  0
 16 15  1  0
 15 14  2  0
 14 13  1  0
 13 12  1  0
 12 11  1  0
 11 10  1  0
 10  2  1  0
  3  2  2  0
  2  1  2  0
  4  2  1  0
  4  9  1  0
  9  8  2  0
  8  6  1  0
  7  6  1  0
  6  5  1  0
  5  4  2  0
 18 13  2  0
 19 18  1  0
M  END
>  <id>  (195) 
195

>  <inchikey>  (195) 
VSFGQSDQUSDVDR-UHFFFAOYSA-N

>  <alias>  (195) 
B1456b

>  <smiles>  (195) 
Cc1cc(O)nc(CCNS(=O)(=O)c2ccn(C)n2)n1

>  <path>  (195) 
/opt/xchem-fragalysis-2/maxwin/BulkDock/TARGETS/D68EV3C/aligned_files/B1456b/B1456b_hippo.pdb

>  <distance_score>  (195) 
None

>  <energy_score>  (195) 
None

>  <compound>  (195) 
VSFGQSDQUSDVDR-UHFFFAOYSA-N

>  <compound_id>  (195) 
152

>  <target>  (195) 
D68EV3C

>  <tags>  (195) 
['BAD count', '[Other] upload_1 2025-02-11', 'hits', 'MEDIOCRE count', 'Main status', 'GOOD count']

>  <inspirations>  (195) 
None

>  <subsites>  (195) 
None

>  <reference>  (195) 


>  <observation_longname>  (195) 
D68EV3CPROB-x1456_B_301_v1

>  <ConformerSites alias>  (195) 
1a - 7gp9/A/201

>  <CanonSites alias>  (195) 
1 - 7gp9/A/201/1

>  <CrystalformSites alias>  (195) 
F1e - 0436/B/301

>  <Quatassemblies alias>  (195) 
A1 - monomer

>  <Crystalforms alias>  (195) 
F1 - D68_3C_PROB

>  <ConformerSites upload name>  (195) 
1a - 7gp9/A/201

>  <CanonSites upload name>  (195) 
1 - 7gp9/A/201/1

>  <CrystalformSites upload name>  (195) 
F1e - D68EV3CPROB-x0436/B/301/1

>  <Quatassemblies upload name>  (195) 
A1 - monomer

>  <Crystalforms upload name>  (195) 
F1 - D68_3C_PROB

>  <ConformerSites short tag>  (195) 
1a - 7gp9/A/201

>  <CanonSites short tag>  (195) 
1 - 7gp9/A/201/1

>  <CrystalformSites short tag>  (195) 
F1e - 0436/B/301

>  <Quatassemblies short tag>  (195) 
A1 - monomer

>  <Crystalforms short tag>  (195) 
F1 - D68_3C_PROB

>  <Centroid res>  (195) 
7gp9/A/163/A_v1

>  <Experiment code>  (195) 
D68EV3CPROB-x1456

>  <Pose>  (195) 
B1456a

$$$$
B1457a
     RDKit          3D

 19 20  0  0  0  0  0  0  0  0999 V2000
   -1.4440   -1.3990   32.7330 O   0  0  0  0  0  0  0  0  0  0  0  0
   -1.4530   -2.2660   31.5950 S   0  0  0  0  0  0  0  0  0  0  0  0
   -2.5650   -3.1380   31.3860 O   0  0  0  0  0  0  0  0  0  0  0  0
   -1.3020   -1.3260   30.2100 C   0  0  0  0  0  0  0  0  0  0  0  0
   -0.9610    0.0220   30.3860 N   0  0  0  0  0  0  0  0  0  0  0  0
   -0.9600    0.6400   29.2490 C   0  0  0  0  0  0  0  0  0  0  0  0
   -1.3490   -0.3160   27.8890 S   0  0  0  0  0  0  0  0  0  0  0  0
   -1.5270   -1.6670   28.9150 C   0  0  0  0  0  0  0  0  0  0  0  0
   -0.1360   -3.1940   31.6930 N   0  0  0  0  0  0  0  0  0  0  0  0
    0.3330   -3.9480   30.5190 C   0  0  0  0  0  0  0  0  0  0  0  0
    1.1380   -5.1730   30.9290 C   0  0  0  0  0  0  0  0  0  0  0  0
    0.2940   -6.0670   31.7860 C   0  0  0  0  0  0  0  0  0  0  0  0
   -0.4490   -6.9810   31.1520 N   0  0  0  0  0  0  0  0  0  0  0  0
   -1.2360   -7.7250   31.9500 C   0  0  0  0  0  0  0  0  0  0  0  0
   -1.9930   -8.6210   31.3940 O   0  0  0  0  0  0  0  0  0  0  0  0
   -1.2890   -7.5780   33.3390 C   0  0  0  0  0  0  0  0  0  0  0  0
    0.3320   -5.8500   33.1050 N   0  0  0  0  0  0  0  0  0  0  0  0
   -0.4650   -6.6080   33.8780 C   0  0  0  0  0  0  0  0  0  0  0  0
   -0.4180   -6.3460   35.3480 C   0  0  0  0  0  0  0  0  0  0  0  0
 19 18  1  0
 18 16  2  0
 16 14  1  0
 15 14  1  0
 14 13  2  0
 13 12  1  0
 12 11  1  0
 11 10  1  0
 10  9  1  0
  9  2  1  0
  3  2  2  0
  2  1  2  0
  4  2  1  0
  4  8  2  0
  8  7  1  0
  7  6  1  0
  6  5  2  0
  5  4  1  0
 17 12  2  0
 18 17  1  0
M  END
>  <id>  (196) 
196

>  <inchikey>  (196) 
NFFNEEJNFLWXMI-UHFFFAOYSA-N

>  <alias>  (196) 
B1457a

>  <smiles>  (196) 
Cc1cc(O)nc(CCNS(=O)(=O)c2cscn2)n1

>  <path>  (196) 
/opt/xchem-fragalysis-2/maxwin/BulkDock/TARGETS/D68EV3C/aligned_files/B1457a/B1457a_hippo.pdb

>  <distance_score>  (196) 
None

>  <energy_score>  (196) 
None

>  <compound>  (196) 
NFFNEEJNFLWXMI-UHFFFAOYSA-N

>  <compound_id>  (196) 
153

>  <target>  (196) 
D68EV3C

>  <tags>  (196) 
['BAD count', '[Other] upload_1 2025-02-11', '[Other] iter1_frags', 'hits', 'MEDIOCRE count', 'Main status', 'GOOD count']

>  <inspirations>  (196) 
None

>  <subsites>  (196) 
None

>  <reference>  (196) 


>  <observation_longname>  (196) 
D68EV3CPROB-x1457_A_308_v1

>  <ConformerSites alias>  (196) 
1a - 7gp9/A/201

>  <CanonSites alias>  (196) 
1 - 7gp9/A/201/1

>  <CrystalformSites alias>  (196) 
F1e - 0436/B/301

>  <Quatassemblies alias>  (196) 
A1 - monomer

>  <Crystalforms alias>  (196) 
F1 - D68_3C_PROB

>  <ConformerSites upload name>  (196) 
1a - 7gp9/A/201

>  <CanonSites upload name>  (196) 
1 - 7gp9/A/201/1

>  <CrystalformSites upload name>  (196) 
F1e - D68EV3CPROB-x0436/B/301/1

>  <Quatassemblies upload name>  (196) 
A1 - monomer

>  <Crystalforms upload name>  (196) 
F1 - D68_3C_PROB

>  <ConformerSites short tag>  (196) 
1a - 7gp9/A/201

>  <CanonSites short tag>  (196) 
1 - 7gp9/A/201/1

>  <CrystalformSites short tag>  (196) 
F1e - 0436/B/301

>  <Quatassemblies short tag>  (196) 
A1 - monomer

>  <Crystalforms short tag>  (196) 
F1 - D68_3C_PROB

>  <Centroid res>  (196) 
7gp9/A/163/A_v1

>  <Experiment code>  (196) 
D68EV3CPROB-x1457

>  <Pose>  (196) 
B1457a

$$$$
B1457b
     RDKit          3D

 19 20  0  0  0  0  0  0  0  0999 V2000
   -2.3060   -3.4240   31.5310 O   0  0  0  0  0  0  0  0  0  0  0  0
   -1.2240   -2.5150   31.7420 S   0  0  0  0  0  0  0  0  0  0  0  0
   -1.2350   -1.6570   32.8860 O   0  0  0  0  0  0  0  0  0  0  0  0
   -1.0970   -1.5310   30.3730 C   0  0  0  0  0  0  0  0  0  0  0  0
   -0.5720   -0.2340   30.5270 N   0  0  0  0  0  0  0  0  0  0  0  0
   -0.5620    0.3940   29.3910 C   0  0  0  0  0  0  0  0  0  0  0  0
   -1.1640   -0.4830   28.0530 S   0  0  0  0  0  0  0  0  0  0  0  0
   -1.4600   -1.8110   29.0830 C   0  0  0  0  0  0  0  0  0  0  0  0
    0.1310   -3.3970   31.8270 N   0  0  0  0  0  0  0  0  0  0  0  0
    0.5660   -4.2200   30.6870 C   0  0  0  0  0  0  0  0  0  0  0  0
    1.3340   -5.4440   31.1450 C   0  0  0  0  0  0  0  0  0  0  0  0
    0.4240   -6.3040   31.9680 C   0  0  0  0  0  0  0  0  0  0  0  0
   -0.3780   -7.1400   31.2930 N   0  0  0  0  0  0  0  0  0  0  0  0
   -1.2340   -7.8500   32.0600 C   0  0  0  0  0  0  0  0  0  0  0  0
   -2.0580   -8.6770   31.4550 O   0  0  0  0  0  0  0  0  0  0  0  0
   -1.2810   -7.7370   33.4640 C   0  0  0  0  0  0  0  0  0  0  0  0
    0.4690   -6.1350   33.2950 N   0  0  0  0  0  0  0  0  0  0  0  0
   -0.3800   -6.8600   34.0410 C   0  0  0  0  0  0  0  0  0  0  0  0
   -0.2810   -6.6920   35.5280 C   0  0  0  0  0  0  0  0  0  0  0  0
 19 18  1  0
 18 16  2  0
 16 14  1  0
 15 14  1  0
 14 13  2  0
 13 12  1  0
 12 11  1  0
 11 10  1  0
 10  9  1  0
  9  2  1  0
  3  2  2  0
  2  1  2  0
  4  2  1  0
  4  8  2  0
  8  7  1  0
  7  6  1  0
  6  5  2  0
  5  4  1  0
 17 12  2  0
 18 17  1  0
M  END
>  <id>  (197) 
197

>  <inchikey>  (197) 
NFFNEEJNFLWXMI-UHFFFAOYSA-N

>  <alias>  (197) 
B1457b

>  <smiles>  (197) 
Cc1cc(O)nc(CCNS(=O)(=O)c2cscn2)n1

>  <path>  (197) 
/opt/xchem-fragalysis-2/maxwin/BulkDock/TARGETS/D68EV3C/aligned_files/B1457b/B1457b.pdb

>  <distance_score>  (197) 
None

>  <energy_score>  (197) 
None

>  <compound>  (197) 
NFFNEEJNFLWXMI-UHFFFAOYSA-N

>  <compound_id>  (197) 
153

>  <target>  (197) 
D68EV3C

>  <tags>  (197) 
['BAD count', '[Other] upload_1 2025-02-11', 'hits', 'MEDIOCRE count', 'Main status', 'GOOD count']

>  <inspirations>  (197) 
None

>  <subsites>  (197) 
None

>  <reference>  (197) 


>  <observation_longname>  (197) 
D68EV3CPROB-x1457_A_401_v1

>  <ConformerSites alias>  (197) 
1a - 7gp9/A/201

>  <CanonSites alias>  (197) 
1 - 7gp9/A/201/1

>  <CrystalformSites alias>  (197) 
F1f - 0446/A/209

>  <Quatassemblies alias>  (197) 
A1 - monomer

>  <Crystalforms alias>  (197) 
F1 - D68_3C_PROB

>  <ConformerSites upload name>  (197) 
1a - 7gp9/A/201

>  <CanonSites upload name>  (197) 
1 - 7gp9/A/201/1

>  <CrystalformSites upload name>  (197) 
F1f - D68EV3CPROB-x0446/A/209/1

>  <Quatassemblies upload name>  (197) 
A1 - monomer

>  <Crystalforms upload name>  (197) 
F1 - D68_3C_PROB

>  <ConformerSites short tag>  (197) 
1a - 7gp9/A/201

>  <CanonSites short tag>  (197) 
1 - 7gp9/A/201/1

>  <CrystalformSites short tag>  (197) 
F1f - 0446/A/209

>  <Quatassemblies short tag>  (197) 
A1 - monomer

>  <Crystalforms short tag>  (197) 
F1 - D68_3C_PROB

>  <Centroid res>  (197) 
7gp9/A/163/A_v1

>  <Experiment code>  (197) 
D68EV3CPROB-x1457

>  <Pose>  (197) 
B1457a

$$$$
B1460a
     RDKit          3D

 20 21  0  0  0  0  0  0  0  0999 V2000
   -2.0860   -3.3680   31.2560 O   0  0  0  0  0  0  0  0  0  0  0  0
   -1.0510   -2.3820   31.2780 S   0  0  0  0  0  0  0  0  0  0  0  0
   -0.8550   -1.5970   32.4600 O   0  0  0  0  0  0  0  0  0  0  0  0
   -1.3340   -1.2670   29.9480 C   0  0  0  0  0  0  0  0  0  0  0  0
   -1.1100    0.0910   30.1130 C   0  0  0  0  0  0  0  0  0  0  0  0
   -1.3110    0.9400   29.0420 C   0  0  0  0  0  0  0  0  0  0  0  0
   -1.7670   -1.7320   28.7200 C   0  0  0  0  0  0  0  0  0  0  0  0
   -1.9830   -0.9290   27.6670 N   0  0  0  0  0  0  0  0  0  0  0  0
   -1.7540    0.3980   27.8120 C   0  0  0  0  0  0  0  0  0  0  0  0
   -1.9700    1.1900   26.7420 N   0  0  0  0  0  0  0  0  0  0  0  0
    0.3440   -3.1500   30.9860 N   0  0  0  0  0  0  0  0  0  0  0  0
    0.5020   -4.0720   29.8470 C   0  0  0  0  0  0  0  0  0  0  0  0
    1.2360   -5.3480   30.2670 C   0  0  0  0  0  0  0  0  0  0  0  0
    0.4950   -6.1270   31.3100 C   0  0  0  0  0  0  0  0  0  0  0  0
   -0.4070   -7.0220   30.8820 N   0  0  0  0  0  0  0  0  0  0  0  0
   -1.1190   -7.6660   31.8390 C   0  0  0  0  0  0  0  0  0  0  0  0
   -2.0040   -8.5410   31.4510 O   0  0  0  0  0  0  0  0  0  0  0  0
   -0.9370   -7.4280   33.2030 C   0  0  0  0  0  0  0  0  0  0  0  0
    0.0300   -6.4940   33.5210 C   0  0  0  0  0  0  0  0  0  0  0  0
    0.7610   -5.8360   32.6130 N   0  0  0  0  0  0  0  0  0  0  0  0
 10  9  1  0
  9  6  1  0
  6  5  2  0
  5  4  1  0
  4  2  1  0
  3  2  2  0
  2  1  2  0
 11  2  1  0
 12 11  1  0
 13 12  1  0
 14 13  1  0
 14 20  2  0
 20 19  1  0
 19 18  2  0
 18 16  1  0
 17 16  1  0
 16 15  2  0
 15 14  1  0
  7  4  2  0
  8  7  1  0
  9  8  2  0
M  END
>  <id>  (198) 
198

>  <inchikey>  (198) 
OCZUQLYBPXFJIF-UHFFFAOYSA-N

>  <alias>  (198) 
B1460a

>  <smiles>  (198) 
Nc1ccc(S(=O)(=O)NCCc2nccc(O)n2)cn1

>  <path>  (198) 
/opt/xchem-fragalysis-2/maxwin/BulkDock/TARGETS/D68EV3C/aligned_files/B1460a/B1460a_hippo.pdb

>  <distance_score>  (198) 
None

>  <energy_score>  (198) 
None

>  <compound>  (198) 
OCZUQLYBPXFJIF-UHFFFAOYSA-N

>  <compound_id>  (198) 
154

>  <target>  (198) 
D68EV3C

>  <tags>  (198) 
['BAD count', '[Other] upload_1 2025-02-11', '[Other] iter1_frags', 'hits', 'MEDIOCRE count', 'Main status', 'GOOD count']

>  <inspirations>  (198) 
None

>  <subsites>  (198) 
None

>  <reference>  (198) 


>  <observation_longname>  (198) 
D68EV3CPROB-x1460_A_308_v1

>  <ConformerSites alias>  (198) 
1a - 7gp9/A/201

>  <CanonSites alias>  (198) 
1 - 7gp9/A/201/1

>  <CrystalformSites alias>  (198) 
F1f - 0446/A/209

>  <Quatassemblies alias>  (198) 
A1 - monomer

>  <Crystalforms alias>  (198) 
F1 - D68_3C_PROB

>  <ConformerSites upload name>  (198) 
1a - 7gp9/A/201

>  <CanonSites upload name>  (198) 
1 - 7gp9/A/201/1

>  <CrystalformSites upload name>  (198) 
F1f - D68EV3CPROB-x0446/A/209/1

>  <Quatassemblies upload name>  (198) 
A1 - monomer

>  <Crystalforms upload name>  (198) 
F1 - D68_3C_PROB

>  <ConformerSites short tag>  (198) 
1a - 7gp9/A/201

>  <CanonSites short tag>  (198) 
1 - 7gp9/A/201/1

>  <CrystalformSites short tag>  (198) 
F1f - 0446/A/209

>  <Quatassemblies short tag>  (198) 
A1 - monomer

>  <Crystalforms short tag>  (198) 
F1 - D68_3C_PROB

>  <Centroid res>  (198) 
7gp9/A/163/A_v1

>  <Experiment code>  (198) 
D68EV3CPROB-x1460

>  <Pose>  (198) 
B1460a

$$$$
B1460b
     RDKit          3D

 20 21  0  0  0  0  0  0  0  0999 V2000
   -0.8400   -1.4730   32.4610 O   0  0  0  0  0  0  0  0  0  0  0  0
   -1.0890   -2.2470   31.2800 S   0  0  0  0  0  0  0  0  0  0  0  0
   -2.1680   -3.1910   31.2890 O   0  0  0  0  0  0  0  0  0  0  0  0
   -1.3540   -1.1270   29.9440 C   0  0  0  0  0  0  0  0  0  0  0  0
   -0.9680    0.1990   30.0520 C   0  0  0  0  0  0  0  0  0  0  0  0
   -1.2050    1.0580   28.9940 C   0  0  0  0  0  0  0  0  0  0  0  0
   -1.9600   -1.5550   28.7770 C   0  0  0  0  0  0  0  0  0  0  0  0
   -2.2120   -0.7400   27.7410 N   0  0  0  0  0  0  0  0  0  0  0  0
   -1.8470    0.5610   27.8400 C   0  0  0  0  0  0  0  0  0  0  0  0
   -2.1430    1.3770   26.8040 N   0  0  0  0  0  0  0  0  0  0  0  0
    0.2700   -3.0530   30.9630 N   0  0  0  0  0  0  0  0  0  0  0  0
    0.3820   -3.9590   29.8140 C   0  0  0  0  0  0  0  0  0  0  0  0
    1.1850   -5.1950   30.1950 C   0  0  0  0  0  0  0  0  0  0  0  0
    0.5080   -5.9950   31.2660 C   0  0  0  0  0  0  0  0  0  0  0  0
   -0.3970   -6.8960   30.8660 N   0  0  0  0  0  0  0  0  0  0  0  0
   -1.0170   -7.6040   31.8340 C   0  0  0  0  0  0  0  0  0  0  0  0
   -1.8430   -8.5330   31.4650 O   0  0  0  0  0  0  0  0  0  0  0  0
   -0.7630   -7.4080   33.1930 C   0  0  0  0  0  0  0  0  0  0  0  0
    0.1980   -6.4590   33.4820 C   0  0  0  0  0  0  0  0  0  0  0  0
    0.8520   -5.7460   32.5530 N   0  0  0  0  0  0  0  0  0  0  0  0
 10  9  1  0
  9  6  1  0
  6  5  2  0
  5  4  1  0
  4  2  1  0
  3  2  2  0
  2  1  2  0
 11  2  1  0
 12 11  1  0
 13 12  1  0
 14 13  1  0
 14 20  2  0
 20 19  1  0
 19 18  2  0
 18 16  1  0
 17 16  1  0
 16 15  2  0
 15 14  1  0
  7  4  2  0
  8  7  1  0
  9  8  2  0
M  END
>  <id>  (199) 
199

>  <inchikey>  (199) 
OCZUQLYBPXFJIF-UHFFFAOYSA-N

>  <alias>  (199) 
B1460b

>  <smiles>  (199) 
Nc1ccc(S(=O)(=O)NCCc2nccc(O)n2)cn1

>  <path>  (199) 
/opt/xchem-fragalysis-2/maxwin/BulkDock/TARGETS/D68EV3C/aligned_files/B1460b/B1460b_hippo.pdb

>  <distance_score>  (199) 
None

>  <energy_score>  (199) 
None

>  <compound>  (199) 
OCZUQLYBPXFJIF-UHFFFAOYSA-N

>  <compound_id>  (199) 
154

>  <target>  (199) 
D68EV3C

>  <tags>  (199) 
['BAD count', '[Other] upload_1 2025-02-11', 'hits', 'MEDIOCRE count', 'Main status', 'GOOD count']

>  <inspirations>  (199) 
None

>  <subsites>  (199) 
None

>  <reference>  (199) 


>  <observation_longname>  (199) 
D68EV3CPROB-x1460_B_301_v1

>  <ConformerSites alias>  (199) 
1a - 7gp9/A/201

>  <CanonSites alias>  (199) 
1 - 7gp9/A/201/1

>  <CrystalformSites alias>  (199) 
F1e - 0436/B/301

>  <Quatassemblies alias>  (199) 
A1 - monomer

>  <Crystalforms alias>  (199) 
F1 - D68_3C_PROB

>  <ConformerSites upload name>  (199) 
1a - 7gp9/A/201

>  <CanonSites upload name>  (199) 
1 - 7gp9/A/201/1

>  <CrystalformSites upload name>  (199) 
F1e - D68EV3CPROB-x0436/B/301/1

>  <Quatassemblies upload name>  (199) 
A1 - monomer

>  <Crystalforms upload name>  (199) 
F1 - D68_3C_PROB

>  <ConformerSites short tag>  (199) 
1a - 7gp9/A/201

>  <CanonSites short tag>  (199) 
1 - 7gp9/A/201/1

>  <CrystalformSites short tag>  (199) 
F1e - 0436/B/301

>  <Quatassemblies short tag>  (199) 
A1 - monomer

>  <Crystalforms short tag>  (199) 
F1 - D68_3C_PROB

>  <Centroid res>  (199) 
7gp9/A/163/A_v1

>  <Experiment code>  (199) 
D68EV3CPROB-x1460

>  <Pose>  (199) 
B1460a

$$$$
B1462a
     RDKit          3D

 16 16  0  0  0  0  0  0  0  0999 V2000
   -2.0070   -8.6710   31.6600 O   0  0  0  0  0  0  0  0  0  0  0  0
   -1.3780   -7.7640   32.2110 C   0  0  0  0  0  0  0  0  0  0  0  0
   -1.2710   -7.6590   33.5380 N   0  0  0  0  0  0  0  0  0  0  0  0
   -0.6760   -6.7400   31.3640 C   0  0  0  0  0  0  0  0  0  0  0  0
   -0.5370   -5.4150   31.7660 C   0  0  0  0  0  0  0  0  0  0  0  0
    0.0770   -4.4940   30.9350 C   0  0  0  0  0  0  0  0  0  0  0  0
    0.5720   -4.8860   29.7010 C   0  0  0  0  0  0  0  0  0  0  0  0
   -0.1740   -7.1310   30.1230 C   0  0  0  0  0  0  0  0  0  0  0  0
    0.4790   -6.2160   29.2900 C   0  0  0  0  0  0  0  0  0  0  0  0
    1.2030   -6.6190   28.0840 C   0  0  0  0  0  0  0  0  0  0  0  0
    2.1200   -5.8230   27.5520 C   0  0  0  0  0  0  0  0  0  0  0  0
    3.4450   -5.7580   28.1740 C   0  0  0  0  0  0  0  0  0  0  0  0
    3.8490   -6.5140   29.0170 O   0  0  0  0  0  0  0  0  0  0  0  0
    4.2140   -4.8170   27.6170 O   0  0  0  0  0  0  0  0  0  0  0  0
    4.2230   -3.5300   28.3060 C   0  0  0  0  0  0  0  0  0  0  0  0
    5.1820   -3.5970   29.4480 C   0  0  0  0  0  0  0  0  0  0  0  0
 16 15  1  0
 15 14  1  0
 14 12  1  0
 13 12  2  0
 12 11  1  0
 11 10  2  0
 10  9  1  0
  9  7  1  0
  7  6  2  0
  6  5  1  0
  5  4  2  0
  4  2  1  0
  3  2  1  0
  2  1  2  0
  8  4  1  0
  9  8  2  0
M  END
>  <id>  (200) 
200

>  <inchikey>  (200) 
PCTAVPQJZOAOKC-UHFFFAOYSA-N

>  <alias>  (200) 
B1462a

>  <smiles>  (200) 
CCOC(=O)/C=C\c1cccc(C(N)=O)c1

>  <path>  (200) 
/opt/xchem-fragalysis-2/maxwin/BulkDock/TARGETS/D68EV3C/aligned_files/B1462a/B1462a.pdb

>  <distance_score>  (200) 
None

>  <energy_score>  (200) 
None

>  <compound>  (200) 
PCTAVPQJZOAOKC-UHFFFAOYSA-N

>  <compound_id>  (200) 
155

>  <target>  (200) 
D68EV3C

>  <tags>  (200) 
['BAD count', '[Other] upload_1 2025-02-11', '[Other] iter1_frags', 'hits', 'MEDIOCRE count', 'Main status', 'GOOD count']

>  <inspirations>  (200) 
None

>  <subsites>  (200) 
None

>  <reference>  (200) 


>  <observation_longname>  (200) 
D68EV3CPROB-x1462_A_308_v1

>  <ConformerSites alias>  (200) 
1a - 7gp9/A/201

>  <CanonSites alias>  (200) 
1 - 7gp9/A/201/1

>  <CrystalformSites alias>  (200) 
F1f - 0446/A/209

>  <Quatassemblies alias>  (200) 
A1 - monomer

>  <Crystalforms alias>  (200) 
F1 - D68_3C_PROB

>  <ConformerSites upload name>  (200) 
1a - 7gp9/A/201

>  <CanonSites upload name>  (200) 
1 - 7gp9/A/201/1

>  <CrystalformSites upload name>  (200) 
F1f - D68EV3CPROB-x0446/A/209/1

>  <Quatassemblies upload name>  (200) 
A1 - monomer

>  <Crystalforms upload name>  (200) 
F1 - D68_3C_PROB

>  <ConformerSites short tag>  (200) 
1a - 7gp9/A/201

>  <CanonSites short tag>  (200) 
1 - 7gp9/A/201/1

>  <CrystalformSites short tag>  (200) 
F1f - 0446/A/209

>  <Quatassemblies short tag>  (200) 
A1 - monomer

>  <Crystalforms short tag>  (200) 
F1 - D68_3C_PROB

>  <Centroid res>  (200) 
7gp9/A/163/A_v1

>  <Experiment code>  (200) 
D68EV3CPROB-x1462

>  <Pose>  (200) 
B1462a

$$$$
B1462b
     RDKit          3D

 16 16  0  0  0  0  0  0  0  0999 V2000
   -2.0410   -8.6000   31.6820 O   0  0  0  0  0  0  0  0  0  0  0  0
   -1.4200   -7.7220   32.2170 C   0  0  0  0  0  0  0  0  0  0  0  0
   -1.2920   -7.6350   33.5390 N   0  0  0  0  0  0  0  0  0  0  0  0
   -0.7620   -6.6740   31.3750 C   0  0  0  0  0  0  0  0  0  0  0  0
   -0.7170   -5.3450   31.7870 C   0  0  0  0  0  0  0  0  0  0  0  0
   -0.1330   -4.3850   30.9800 C   0  0  0  0  0  0  0  0  0  0  0  0
    0.4160   -4.7420   29.7580 C   0  0  0  0  0  0  0  0  0  0  0  0
   -0.2040   -7.0290   30.1460 C   0  0  0  0  0  0  0  0  0  0  0  0
    0.4120   -6.0690   29.3360 C   0  0  0  0  0  0  0  0  0  0  0  0
    1.1850   -6.3860   28.1270 C   0  0  0  0  0  0  0  0  0  0  0  0
    2.1220   -5.5580   27.6830 C   0  0  0  0  0  0  0  0  0  0  0  0
    3.4620   -5.6500   28.2760 C   0  0  0  0  0  0  0  0  0  0  0  0
    3.8360   -6.5570   28.9720 O   0  0  0  0  0  0  0  0  0  0  0  0
    4.2910   -4.6810   27.8590 O   0  0  0  0  0  0  0  0  0  0  0  0
    5.1830   -4.1000   28.8680 C   0  0  0  0  0  0  0  0  0  0  0  0
    4.4570   -3.9010   30.1990 C   0  0  0  0  0  0  0  0  0  0  0  0
 16 15  1  0
 15 14  1  0
 14 12  1  0
 13 12  2  0
 12 11  1  0
 11 10  2  0
 10  9  1  0
  9  7  1  0
  7  6  2  0
  6  5  1  0
  5  4  2  0
  4  2  1  0
  3  2  1  0
  2  1  2  0
  8  4  1  0
  9  8  2  0
M  END
>  <id>  (201) 
201

>  <inchikey>  (201) 
PCTAVPQJZOAOKC-UHFFFAOYSA-N

>  <alias>  (201) 
B1462b

>  <smiles>  (201) 
CCOC(=O)/C=C\c1cccc(C(N)=O)c1

>  <path>  (201) 
/opt/xchem-fragalysis-2/maxwin/BulkDock/TARGETS/D68EV3C/aligned_files/B1462b/B1462b.pdb

>  <distance_score>  (201) 
None

>  <energy_score>  (201) 
None

>  <compound>  (201) 
PCTAVPQJZOAOKC-UHFFFAOYSA-N

>  <compound_id>  (201) 
155

>  <target>  (201) 
D68EV3C

>  <tags>  (201) 
['BAD count', '[Other] upload_1 2025-02-11', 'hits', 'MEDIOCRE count', 'Main status', 'GOOD count']

>  <inspirations>  (201) 
None

>  <subsites>  (201) 
None

>  <reference>  (201) 


>  <observation_longname>  (201) 
D68EV3CPROB-x1462_B_301_v1

>  <ConformerSites alias>  (201) 
1a - 7gp9/A/201

>  <CanonSites alias>  (201) 
1 - 7gp9/A/201/1

>  <CrystalformSites alias>  (201) 
F1e - 0436/B/301

>  <Quatassemblies alias>  (201) 
A1 - monomer

>  <Crystalforms alias>  (201) 
F1 - D68_3C_PROB

>  <ConformerSites upload name>  (201) 
1a - 7gp9/A/201

>  <CanonSites upload name>  (201) 
1 - 7gp9/A/201/1

>  <CrystalformSites upload name>  (201) 
F1e - D68EV3CPROB-x0436/B/301/1

>  <Quatassemblies upload name>  (201) 
A1 - monomer

>  <Crystalforms upload name>  (201) 
F1 - D68_3C_PROB

>  <ConformerSites short tag>  (201) 
1a - 7gp9/A/201

>  <CanonSites short tag>  (201) 
1 - 7gp9/A/201/1

>  <CrystalformSites short tag>  (201) 
F1e - 0436/B/301

>  <Quatassemblies short tag>  (201) 
A1 - monomer

>  <Crystalforms short tag>  (201) 
F1 - D68_3C_PROB

>  <Centroid res>  (201) 
7gp9/A/163/A_v1

>  <Experiment code>  (201) 
D68EV3CPROB-x1462

>  <Pose>  (201) 
B1462a

$$$$
B1463a
     RDKit          3D

 20 21  0  0  0  0  0  0  0  0999 V2000
   -2.0160   -3.8560   31.6970 O   0  0  0  0  0  0  0  0  0  0  0  0
   -0.9890   -2.8990   31.9520 S   0  0  0  0  0  0  0  0  0  0  0  0
   -0.9420   -2.2360   33.2160 O   0  0  0  0  0  0  0  0  0  0  0  0
   -1.0390   -1.7430   30.8030 N   0  0  0  0  0  0  0  0  0  0  0  0
   -1.3090   -2.1020   29.3970 C   0  0  0  0  0  0  0  0  0  0  0  0
   -0.1770   -1.5770   28.5490 C   0  0  0  0  0  0  0  0  0  0  0  0
   -0.1250   -0.1510   28.5470 O   0  0  0  0  0  0  0  0  0  0  0  0
   -0.3860    0.3740   29.8490 C   0  0  0  0  0  0  0  0  0  0  0  0
   -0.0810   -0.6280   30.9280 C   0  0  0  0  0  0  0  0  0  0  0  0
    0.4530   -3.6230   31.7380 N   0  0  0  0  0  0  0  0  0  0  0  0
    0.6900   -4.5500   30.6250 C   0  0  0  0  0  0  0  0  0  0  0  0
    1.4620   -5.7650   31.0830 C   0  0  0  0  0  0  0  0  0  0  0  0
    0.5150   -6.5340   31.9520 C   0  0  0  0  0  0  0  0  0  0  0  0
   -0.3120   -7.3570   31.3010 N   0  0  0  0  0  0  0  0  0  0  0  0
   -1.2440   -7.9490   32.0550 C   0  0  0  0  0  0  0  0  0  0  0  0
   -2.0940   -8.7200   31.4470 O   0  0  0  0  0  0  0  0  0  0  0  0
   -1.3430   -7.7430   33.4530 C   0  0  0  0  0  0  0  0  0  0  0  0
    0.5220   -6.2760   33.2660 N   0  0  0  0  0  0  0  0  0  0  0  0
   -0.4080   -6.8910   34.0150 C   0  0  0  0  0  0  0  0  0  0  0  0
   -0.3680   -6.6230   35.4880 C   0  0  0  0  0  0  0  0  0  0  0  0
 20 19  1  0
 19 17  2  0
 17 15  1  0
 16 15  1  0
 15 14  2  0
 14 13  1  0
 13 12  1  0
 12 11  1  0
 11 10  1  0
 10  2  1  0
  3  2  2  0
  2  1  2  0
  4  2  1  0
  4  9  1  0
  9  8  1  0
  8  7  1  0
  7  6  1  0
  6  5  1  0
  5  4  1  0
 18 13  2  0
 19 18  1  0
M  END
>  <id>  (202) 
202

>  <inchikey>  (202) 
BDTWKIPTSXXQQL-UHFFFAOYSA-N

>  <alias>  (202) 
B1463a

>  <smiles>  (202) 
Cc1cc(O)nc(CCNS(=O)(=O)N2CCOCC2)n1

>  <path>  (202) 
/opt/xchem-fragalysis-2/maxwin/BulkDock/TARGETS/D68EV3C/aligned_files/B1463a/B1463a.pdb

>  <distance_score>  (202) 
None

>  <energy_score>  (202) 
None

>  <compound>  (202) 
BDTWKIPTSXXQQL-UHFFFAOYSA-N

>  <compound_id>  (202) 
156

>  <target>  (202) 
D68EV3C

>  <tags>  (202) 
['BAD count', '[Other] upload_1 2025-02-11', '[Other] iter1_frags', 'hits', 'MEDIOCRE count', 'Main status', 'GOOD count']

>  <inspirations>  (202) 
None

>  <subsites>  (202) 
None

>  <reference>  (202) 


>  <observation_longname>  (202) 
D68EV3CPROB-x1463_A_308_v1

>  <ConformerSites alias>  (202) 
1a - 7gp9/A/201

>  <CanonSites alias>  (202) 
1 - 7gp9/A/201/1

>  <CrystalformSites alias>  (202) 
F1f - 0446/A/209

>  <Quatassemblies alias>  (202) 
A1 - monomer

>  <Crystalforms alias>  (202) 
F1 - D68_3C_PROB

>  <ConformerSites upload name>  (202) 
1a - 7gp9/A/201

>  <CanonSites upload name>  (202) 
1 - 7gp9/A/201/1

>  <CrystalformSites upload name>  (202) 
F1f - D68EV3CPROB-x0446/A/209/1

>  <Quatassemblies upload name>  (202) 
A1 - monomer

>  <Crystalforms upload name>  (202) 
F1 - D68_3C_PROB

>  <ConformerSites short tag>  (202) 
1a - 7gp9/A/201

>  <CanonSites short tag>  (202) 
1 - 7gp9/A/201/1

>  <CrystalformSites short tag>  (202) 
F1f - 0446/A/209

>  <Quatassemblies short tag>  (202) 
A1 - monomer

>  <Crystalforms short tag>  (202) 
F1 - D68_3C_PROB

>  <Centroid res>  (202) 
7gp9/A/163/A_v1

>  <Experiment code>  (202) 
D68EV3CPROB-x1463

>  <Pose>  (202) 
B1463a

$$$$
