XX01ZVNS2B-x4194_B_203_6_XX01ZVNS2B-x4590+B+203+1__LIG
     RDKit          3D

 27 31  0  0  0  0  0  0  0  0999 V2000
   -6.6110    5.5080  -12.8890 O   0  0  0  0  0  0  0  0  0  0  0  0
   -7.4290    4.7480  -13.4040 C   0  0  0  0  0  0  0  0  0  0  0  0
   -7.4900    4.6010  -14.8890 C   0  0  0  0  0  0  0  0  0  0  0  0
   -6.3430    5.0400  -15.5400 C   0  0  0  0  0  0  0  0  0  0  0  0
   -6.2980    5.0620  -16.9280 C   0  0  0  0  0  0  0  0  0  0  0  0
   -5.3370    5.4690  -17.9130 C   0  0  0  0  0  0  0  0  0  0  0  0
   -3.9810    6.0780  -17.6780 C   0  0  0  0  0  0  0  0  0  0  0  0
   -3.7420    7.3230  -18.5520 C   0  0  0  0  0  0  0  0  0  0  0  0
   -2.3960    7.9820  -18.2680 C   0  0  0  0  0  0  0  0  0  0  0  0
   -1.4740    7.0930  -17.4960 N   0  0  0  0  0  0  0  0  0  0  0  0
   -1.4790    5.7060  -18.0240 C   0  0  0  0  0  0  0  0  0  0  0  0
   -2.8490    5.0560  -17.8710 C   0  0  0  0  0  0  0  0  0  0  0  0
   -5.8360    5.2700  -19.1270 N   0  0  0  0  0  0  0  0  0  0  0  0
   -7.0960    4.7570  -18.9620 N   0  0  0  0  0  0  0  0  0  0  0  0
   -7.4150    4.6190  -17.6520 C   0  0  0  0  0  0  0  0  0  0  0  0
   -8.5650    4.1590  -17.0130 C   0  0  0  0  0  0  0  0  0  0  0  0
   -8.5890    4.1540  -15.6280 C   0  0  0  0  0  0  0  0  0  0  0  0
   -8.3050    3.9990  -12.6920 N   0  0  0  0  0  0  0  0  0  0  0  0
   -8.4420    3.9720  -11.2800 C   0  0  0  0  0  0  0  0  0  0  0  0
   -8.7180    2.7790  -10.6190 C   0  0  0  0  0  0  0  0  0  0  0  0
   -8.8260    2.7560   -9.2310 C   0  0  0  0  0  0  0  0  0  0  0  0
   -9.1160    1.6030   -8.3160 C   0  0  0  0  0  0  0  0  0  0  0  0
   -8.7550    2.1850   -7.0240 N   0  0  0  0  0  0  0  0  0  0  0  0
   -8.8120    3.6530   -7.0310 C   0  0  0  0  0  0  0  0  0  0  0  0
   -8.6510    3.9220   -8.4990 C   0  0  0  0  0  0  0  0  0  0  0  0
   -8.3730    5.1120   -9.1590 C   0  0  0  0  0  0  0  0  0  0  0  0
   -8.2770    5.1410  -10.5410 C   0  0  0  0  0  0  0  0  0  0  0  0
  2  1  2  0
 18  2  1  0
 19 18  1  0
 19 27  2  0
 27 26  1  0
 26 25  2  0
 25 21  1  0
 21 20  2  0
 20 19  1  0
 22 21  1  0
 23 22  1  0
 24 23  1  0
 25 24  1  0
  3  2  1  0
  3 17  2  0
 17 16  1  0
 16 15  2  0
 15 14  1  0
 14 13  1  0
 13  6  2  0
  7  6  1  0
  7 12  1  0
 12 11  1  0
 11 10  1  0
 10  9  1  0
  9  8  1  0
  8  7  1  0
  6  5  1  0
 15  5  1  0
  5  4  2  0
  4  3  1  0
M  END
$$$$
