A71EV2A-x4742_A_201_1_A71EV2A-x0911+A+147+1__LIG
     RDKit          3D

 21 23  0  0  0  0  0  0  0  0999 V2000
    7.8060   13.1790   22.7690 O   0  0  0  0  0  0  0  0  0  0  0  0
    8.6790   13.6500   23.4700 C   0  0  0  0  0  0  0  0  0  0  0  0
    9.4720   14.6460   23.0360 N   0  0  0  0  0  0  0  0  0  0  0  0
   10.5460   15.2860   23.8200 C   0  0  0  0  0  0  0  0  0  0  0  0
   11.8900   15.1440   23.1190 C   0  0  0  0  0  0  0  0  0  0  0  0
   11.8010   15.6470   21.6680 C   0  0  0  0  0  0  0  0  0  0  0  0
    9.3310   15.2010   21.6870 C   0  0  0  0  0  0  0  0  0  0  0  0
   10.6340   14.9790   20.9170 C   0  0  1  0  0  0  0  0  0  0  0  0
   10.5580   15.4420   19.4710 C   0  0  0  0  0  0  0  0  0  0  0  0
   10.2040   16.5870   19.1860 O   0  0  0  0  0  0  0  0  0  0  0  0
   10.8440   14.5320   18.5570 N   0  0  0  0  0  0  0  0  0  0  0  0
    8.9000   13.1150   24.8830 C   0  0  1  0  0  0  0  0  0  0  0  0
    7.5710   12.6660   25.4500 C   0  0  0  0  0  0  0  0  0  0  0  0
    6.6230   13.6130   25.8320 C   0  0  0  0  0  0  0  0  0  0  0  0
    5.4640   13.2400   26.4890 C   0  0  0  0  0  0  0  0  0  0  0  0
    5.2380   11.9210   26.7870 C   0  0  0  0  0  0  0  0  0  0  0  0
    6.1420   10.9540   26.3900 C   0  0  0  0  0  0  0  0  0  0  0  0
    7.2920   11.3180   25.6900 C   0  0  0  0  0  0  0  0  0  0  0  0
    8.2500    9.9840   25.0630 S   0  0  0  0  0  0  0  0  0  0  0  0
    9.5670   10.7880   24.1160 C   0  0  0  0  0  0  0  0  0  0  0  0
    9.9970   12.0200   24.8950 C   0  0  0  0  0  0  0  0  0  0  0  0
 11  9  1  0
 10  9  2  0
  8  9  1  6
  8  6  1  0
  6  5  1  0
  5  4  1  0
  4  3  1  0
  3  2  1  0
  2  1  2  0
 12  2  1  6
 12 21  1  0
 21 20  1  0
 20 19  1  0
 19 18  1  0
 18 17  1  0
 17 16  2  0
 16 15  1  0
 15 14  2  0
 14 13  1  0
 18 13  2  0
 13 12  1  0
  7  3  1  0
  8  7  1  0
M  END
$$$$
