A71EV2A-x4895_C_201_1_A71EV2A-x0911+A+147+1__LIG
     RDKit          3D

 21 22  0  0  0  0  0  0  0  0999 V2000
    9.9990   11.0750   23.4480 Cl  0  0  0  0  0  0  0  0  0  0  0  0
    8.6130   10.9910   24.4800 C   0  0  0  0  0  0  0  0  0  0  0  0
    8.0710    9.7450   24.7400 C   0  0  0  0  0  0  0  0  0  0  0  0
    6.9890    9.6410   25.5930 C   0  0  0  0  0  0  0  0  0  0  0  0
    6.5260   10.8170   26.1220 C   0  0  0  0  0  0  0  0  0  0  0  0
    5.4150   10.7970   26.8960 F   0  0  0  0  0  0  0  0  0  0  0  0
    6.9990   12.0220   25.8900 N   0  0  0  0  0  0  0  0  0  0  0  0
    8.0560   12.1130   25.0630 C   0  0  0  0  0  0  0  0  0  0  0  0
    8.6710   13.4920   24.8420 C   0  0  2  0  0  0  0  0  0  0  0  0
    7.9650   14.5810   25.6680 C   0  0  0  0  0  0  0  0  0  0  0  0
    8.6370   13.8560   23.3610 C   0  0  0  0  0  0  0  0  0  0  0  0
    7.7730   13.3970   22.6300 O   0  0  0  0  0  0  0  0  0  0  0  0
    9.5470   14.7600   22.9090 N   0  0  0  0  0  0  0  0  0  0  0  0
    9.5100   15.2020   21.5060 C   0  0  0  0  0  0  0  0  0  0  0  0
   10.8760   15.0350   20.8360 C   0  0  1  0  0  0  0  0  0  0  0  0
   10.8220   15.5150   19.3970 C   0  0  0  0  0  0  0  0  0  0  0  0
   10.4500   16.6690   19.1220 O   0  0  0  0  0  0  0  0  0  0  0  0
   11.1260   14.6110   18.4670 N   0  0  0  0  0  0  0  0  0  0  0  0
   11.9530   15.7730   21.6470 C   0  0  0  0  0  0  0  0  0  0  0  0
   11.9620   15.2660   23.0920 C   0  0  0  0  0  0  0  0  0  0  0  0
   10.5920   15.4190   23.7180 C   0  0  0  0  0  0  0  0  0  0  0  0
  9 10  1  1
 11  9  1  0
 12 11  2  0
 13 11  1  0
 13 21  1  0
 21 20  1  0
 20 19  1  0
 19 15  1  0
 15 16  1  6
 18 16  1  0
 17 16  2  0
 15 14  1  0
 14 13  1  0
  9  8  1  0
  8  7  2  0
  7  5  1  0
  6  5  1  0
  5  4  2  0
  4  3  1  0
  3  2  2  0
  8  2  1  0
  2  1  1  0
M  END
$$$$
