A71EV2A-x4928_A_201_1_A71EV2A-x0911+A+147+1__LIG
     RDKit          3D

 18 19  0  0  0  0  0  0  0  0999 V2000
   11.4260   14.5490   25.0210 O   0  0  0  0  0  0  0  0  0  0  0  0
   11.3220   14.6410   23.8060 C   0  0  0  0  0  0  0  0  0  0  0  0
   12.5360   14.9730   22.9800 C   0  0  0  0  0  0  0  0  0  0  0  0
   12.2670   15.4590   21.5520 C   0  0  0  0  0  0  0  0  0  0  0  0
   11.1180   14.6890   20.8970 C   0  0  2  0  0  0  0  0  0  0  0  0
   10.8150   15.2100   19.5020 C   0  0  0  0  0  0  0  0  0  0  0  0
   10.2280   16.2830   19.3330 O   0  0  0  0  0  0  0  0  0  0  0  0
   11.1610   14.4150   18.5040 N   0  0  0  0  0  0  0  0  0  0  0  0
    9.8550   14.7970   21.7580 C   0  0  0  0  0  0  0  0  0  0  0  0
   10.1350   14.5040   23.1690 N   0  0  0  0  0  0  0  0  0  0  0  0
    8.9240   14.2270   23.9360 C   0  0  0  0  0  0  0  0  0  0  0  0
    8.5270   12.7750   24.0880 C   0  0  0  0  0  0  0  0  0  0  0  0
    7.5000   12.4500   24.9610 C   0  0  0  0  0  0  0  0  0  0  0  0
    7.1730   11.1290   25.2030 C   0  0  0  0  0  0  0  0  0  0  0  0
    7.8710   10.1170   24.5680 C   0  0  0  0  0  0  0  0  0  0  0  0
    9.2000   11.7410   23.4370 C   0  0  0  0  0  0  0  0  0  0  0  0
    8.8870   10.4050   23.6730 C   0  0  0  0  0  0  0  0  0  0  0  0
    9.6840    9.2920   23.0310 C   0  0  0  0  0  0  0  0  0  0  0  0
 18 17  1  0
 17 15  2  0
 15 14  1  0
 14 13  2  0
 13 12  1  0
 12 11  1  0
 11 10  1  0
 10  9  1  0
  9  5  1  0
  5  6  1  6
  8  6  1  0
  7  6  2  0
  5  4  1  0
  4  3  1  0
  3  2  1  0
 10  2  1  0
  2  1  2  0
 16 12  2  0
 17 16  1  0
M  END
$$$$
