XX01ZVNS2B-x4094_B_203_1_XX01ZVNS2B-x4590+B+203+1__LIG
     RDKit          3D

 29 32  0  0  0  0  0  0  0  0999 V2000
  -10.3870    3.9850  -18.2100 Cl  0  0  0  0  0  0  0  0  0  0  0  0
   -8.9960    4.2520  -17.2020 C   0  0  0  0  0  0  0  0  0  0  0  0
   -9.0820    3.9810  -15.8500 C   0  0  0  0  0  0  0  0  0  0  0  0
   -7.8470    4.7620  -17.7680 C   0  0  0  0  0  0  0  0  0  0  0  0
   -6.7470    5.0310  -16.9640 C   0  0  0  0  0  0  0  0  0  0  0  0
   -5.5150    5.6950  -17.5330 C   0  0  0  0  0  0  0  0  0  0  0  0
   -4.3200    4.8830  -17.9420 C   0  0  0  0  0  0  0  0  0  0  0  0
   -5.1410    5.5460  -18.9810 C   0  0  0  0  0  0  0  0  0  0  0  0
   -6.8280    4.7290  -15.6070 C   0  0  0  0  0  0  0  0  0  0  0  0
   -7.9840    4.2140  -15.0310 C   0  0  0  0  0  0  0  0  0  0  0  0
   -7.9920    3.7690  -13.5710 C   0  0  1  0  0  0  0  0  0  0  0  0
   -6.8990    2.7200  -13.2970 C   0  0  0  0  0  0  0  0  0  0  0  0
   -5.8010    3.1680  -12.6810 N   0  0  0  0  0  0  0  0  0  0  0  0
   -4.6670    2.3000  -12.3950 C   0  0  0  0  0  0  0  0  0  0  0  0
   -3.6230    2.3120  -13.5990 C   0  0  0  0  0  0  0  0  0  0  0  0
   -2.9040    3.4630  -13.5290 F   0  0  0  0  0  0  0  0  0  0  0  0
   -4.2640    2.3580  -14.7970 F   0  0  0  0  0  0  0  0  0  0  0  0
   -7.0210    1.5720  -13.7080 O   0  0  0  0  0  0  0  0  0  0  0  0
   -7.9390    4.9070  -12.5990 N   0  0  0  0  0  0  0  0  0  0  0  0
   -7.9890    6.2630  -13.1380 C   0  0  0  0  0  0  0  0  0  0  0  0
   -8.1650    4.7240  -11.2110 C   0  0  0  0  0  0  0  0  0  0  0  0
   -8.4930    3.4610  -10.6870 C   0  0  0  0  0  0  0  0  0  0  0  0
   -8.6540    3.2790   -9.3150 C   0  0  0  0  0  0  0  0  0  0  0  0
   -9.0030    2.0320   -8.5570 C   0  0  0  0  0  0  0  0  0  0  0  0
   -8.8180    2.4570   -7.1700 N   0  0  0  0  0  0  0  0  0  0  0  0
   -8.7200    3.9130   -7.0270 C   0  0  0  0  0  0  0  0  0  0  0  0
   -8.5030    4.3490   -8.4450 C   0  0  0  0  0  0  0  0  0  0  0  0
   -8.2030    5.6070   -8.9520 C   0  0  0  0  0  0  0  0  0  0  0  0
   -8.0330    5.7970  -10.3120 C   0  0  0  0  0  0  0  0  0  0  0  0
 20 19  1  0
 21 19  1  0
 21 29  2  0
 29 28  1  0
 28 27  2  0
 27 23  1  0
 23 22  2  0
 22 21  1  0
 24 23  1  0
 25 24  1  0
 26 25  1  0
 27 26  1  0
 11 19  1  1
 12 11  1  0
 18 12  2  0
 13 12  1  0
 14 13  1  0
 15 14  1  0
 17 15  1  0
 16 15  1  0
 11 10  1  0
 10  3  1  0
  3  2  2  0
  2  1  1  0
  4  2  1  0
  5  4  2  0
  6  5  1  0
  6  8  1  0
  8  7  1  0
  7  6  1  0
  9  5  1  0
 10  9  2  0
M  END
$$$$
