XX01ZVNS2B-x1333_B_301_1_XX01ZVNS2B-x4590+B+203+1__LIG
     RDKit          3D

 28 29  0  0  0  0  0  0  0  0999 V2000
   -8.2930    1.7010   -6.7950 C   0  0  0  0  0  0  0  0  0  0  0  0
   -7.8580    2.5980   -7.8630 N   0  0  0  0  0  0  0  0  0  0  0  0
   -6.8110    1.9770   -8.6800 C   0  0  0  0  0  0  0  0  0  0  0  0
   -8.9920    3.0020   -8.6940 C   0  0  0  0  0  0  0  0  0  0  0  0
   -8.6520    4.1620   -9.5910 C   0  0  0  0  0  0  0  0  0  0  0  0
   -8.8390    4.0790  -10.9670 C   0  0  0  0  0  0  0  0  0  0  0  0
   -8.5370    5.1430  -11.8050 C   0  0  0  0  0  0  0  0  0  0  0  0
   -8.7620    5.0410  -13.2890 C   0  0  0  0  0  0  0  0  0  0  0  0
   -7.6270    4.5650  -14.0550 N   0  0  0  0  0  0  0  0  0  0  0  0
   -7.6510    4.5480  -15.4360 C   0  0  0  0  0  0  0  0  0  0  0  0
   -8.8130    4.1480  -16.0790 C   0  0  0  0  0  0  0  0  0  0  0  0
   -8.8440    4.1310  -17.4590 C   0  0  0  0  0  0  0  0  0  0  0  0
  -10.3550    3.6080  -18.2090 Cl  0  0  0  0  0  0  0  0  0  0  0  0
   -7.7510    4.5070  -18.2140 C   0  0  0  0  0  0  0  0  0  0  0  0
   -6.5780    4.9160  -17.5760 C   0  0  0  0  0  0  0  0  0  0  0  0
   -5.3520    5.3290  -18.3510 C   0  0  0  0  0  0  0  0  0  0  0  0
   -4.3980    5.8600  -17.7810 O   0  0  0  0  0  0  0  0  0  0  0  0
   -5.3500    5.0780  -19.6620 N   0  0  0  0  0  0  0  0  0  0  0  0
   -4.3610    5.5760  -20.6630 C   0  0  0  0  0  0  0  0  0  0  0  0
   -2.9500    5.1480  -20.2490 C   0  0  0  0  0  0  0  0  0  0  0  0
   -4.7090    4.9600  -22.0200 C   0  0  0  0  0  0  0  0  0  0  0  0
   -4.4680    7.1050  -20.7730 C   0  0  0  0  0  0  0  0  0  0  0  0
   -3.4890    7.8130  -20.0260 O   0  0  0  0  0  0  0  0  0  0  0  0
   -6.5330    4.9330  -16.1820 C   0  0  0  0  0  0  0  0  0  0  0  0
   -8.0370    6.3070  -11.2460 C   0  0  0  0  0  0  0  0  0  0  0  0
   -7.8350    6.4140   -9.8840 C   0  0  0  0  0  0  0  0  0  0  0  0
   -8.1400    5.3460   -9.0590 C   0  0  0  0  0  0  0  0  0  0  0  0
   -7.9430    5.4550   -7.7130 O   0  0  0  0  0  0  0  0  0  0  0  0
  1  2  1  0
  2  3  1  0
  2  4  1  0
  4  5  1  0
  5  6  2  0
  6  7  1  0
  7  8  1  0
  8  9  1  0
  9 10  1  0
 10 11  2  0
 11 12  1  0
 12 13  1  0
 12 14  2  0
 14 15  1  0
 15 16  1  0
 16 17  2  0
 16 18  1  0
 18 19  1  0
 19 20  1  0
 19 21  1  0
 19 22  1  0
 22 23  1  0
 15 24  2  0
  7 25  2  0
 25 26  1  0
 26 27  2  0
 27 28  1  0
  5 27  1  0
 10 24  1  0
M  END
$$$$
