A71EV2A-x4596_A_202_1_A71EV2A-x0517+A+147+1__LIG
     RDKit          3D

 20 22  0  0  0  0  0  0  0  0999 V2000
   34.4920   21.3170   15.0760 O   0  0  0  0  0  0  0  0  0  0  0  0
   34.3650   22.5260   14.9040 C   0  0  0  0  0  0  0  0  0  0  0  0
   34.3190   23.0910   13.5010 C   0  0  0  0  0  0  0  0  0  0  0  0
   34.4200   24.6140   13.3850 C   0  0  0  0  0  0  0  0  0  0  0  0
   34.2410   23.4010   15.9410 N   0  0  0  0  0  0  0  0  0  0  0  0
   34.1360   24.8610   15.8510 C   0  0  0  0  0  0  0  0  0  0  0  0
   33.6220   25.3380   14.4830 C   0  0  1  0  0  0  0  0  0  0  0  0
   33.8260   26.8460   14.4480 C   0  0  0  0  0  0  0  0  0  0  0  0
   33.6630   27.5250   15.4670 O   0  0  0  0  0  0  0  0  0  0  0  0
   34.1270   27.3960   13.2610 N   0  0  0  0  0  0  0  0  0  0  0  0
   34.2260   22.8880   17.3160 C   0  0  0  0  0  0  0  0  0  0  0  0
   32.8730   22.3480   17.7280 C   0  0  0  0  0  0  0  0  0  0  0  0
   31.8620   23.2160   18.1330 C   0  0  0  0  0  0  0  0  0  0  0  0
   30.6050   22.7070   18.4510 C   0  0  0  0  0  0  0  0  0  0  0  0
   29.4530   23.3510   18.8340 N   0  0  0  0  0  0  0  0  0  0  0  0
   28.4710   22.4180   19.0500 C   0  0  0  0  0  0  0  0  0  0  0  0
   28.9520   21.1730   18.8080 C   0  0  0  0  0  0  0  0  0  0  0  0
   30.3230   21.3260   18.4000 C   0  0  0  0  0  0  0  0  0  0  0  0
   31.3510   20.4750   17.9820 C   0  0  0  0  0  0  0  0  0  0  0  0
   32.6020   20.9820   17.6640 C   0  0  0  0  0  0  0  0  0  0  0  0
 10  8  1  0
  9  8  2  0
  7  8  1  1
  7  4  1  0
  4  3  1  0
  3  2  1  0
  2  1  2  0
  5  2  1  0
 11  5  1  0
 12 11  1  0
 12 20  2  0
 20 19  1  0
 19 18  2  0
 18 17  1  0
 17 16  2  0
 16 15  1  0
 15 14  1  0
 18 14  1  0
 14 13  2  0
 13 12  1  0
  6  5  1  0
  7  6  1  0
M  END
$$$$
