A71EV2A-x3901_A_201_1_A71EV2A-x0911+A+147+1__LIG
     RDKit          3D

 20 21  0  0  0  0  0  0  0  0999 V2000
   10.3420   16.5670   18.9220 O   0  0  0  0  0  0  0  0  0  0  0  0
   10.6810   15.4120   19.1960 C   0  0  0  0  0  0  0  0  0  0  0  0
   11.0640   14.5290   18.2910 N   0  0  0  0  0  0  0  0  0  0  0  0
   10.6830   14.9390   20.6440 C   0  0  1  0  0  0  0  0  0  0  0  0
   11.6890   15.6430   21.4730 N   0  0  0  0  0  0  0  0  0  0  0  0
   11.7460   15.0630   22.8190 C   0  0  0  0  0  0  0  0  0  0  0  0
   10.3910   15.1310   23.5000 C   0  0  0  0  0  0  0  0  0  0  0  0
    9.2990   15.0250   21.2750 C   0  0  0  0  0  0  0  0  0  0  0  0
    9.3640   14.5100   22.6450 N   0  0  0  0  0  0  0  0  0  0  0  0
    8.4960   13.5730   23.0750 C   0  0  0  0  0  0  0  0  0  0  0  0
    7.5280   13.2490   22.4200 O   0  0  0  0  0  0  0  0  0  0  0  0
    8.7290   13.0420   24.4780 C   0  0  0  0  0  0  0  0  0  0  0  0
    7.6860   12.0390   24.9130 C   0  0  0  0  0  0  0  0  0  0  0  0
    7.8400   10.7030   24.5550 C   0  0  0  0  0  0  0  0  0  0  0  0
    8.8610   10.4690   23.6690 O   0  0  0  0  0  0  0  0  0  0  0  0
    9.2040    9.1120   23.3730 C   0  0  0  0  0  0  0  0  0  0  0  0
    6.6710   12.3750   25.8050 C   0  0  0  0  0  0  0  0  0  0  0  0
    5.8510   11.4030   26.3530 C   0  0  0  0  0  0  0  0  0  0  0  0
    6.0220   10.0870   26.0010 C   0  0  0  0  0  0  0  0  0  0  0  0
    7.0090    9.7280   25.0910 C   0  0  0  0  0  0  0  0  0  0  0  0
 16 15  1  0
 15 14  1  0
 14 20  2  0
 20 19  1  0
 19 18  2  0
 18 17  1  0
 17 13  2  0
 14 13  1  0
 13 12  1  0
 12 10  1  0
 11 10  2  0
 10  9  1  0
  9  7  1  0
  7  6  1  0
  6  5  1  0
  5  4  1  0
  4  2  1  6
  3  2  1  0
  2  1  2  0
  8  4  1  0
  9  8  1  0
M  END
$$$$
