XX01ZVNS2B-x4429_B_203_1_XX01ZVNS2B-x4590+B+203+1__LIG
     RDKit          3D

 28 30  0  0  0  0  0  0  0  0999 V2000
   -5.3450    5.6840  -18.8780 F   0  0  0  0  0  0  0  0  0  0  0  0
   -5.3350    5.6290  -17.5350 C   0  0  0  0  0  0  0  0  0  0  0  0
   -4.3280    4.8230  -17.1970 F   0  0  0  0  0  0  0  0  0  0  0  0
   -5.0290    6.8400  -17.0410 F   0  0  0  0  0  0  0  0  0  0  0  0
   -6.6370    5.1310  -16.9770 C   0  0  0  0  0  0  0  0  0  0  0  0
   -7.7050    4.8290  -17.8070 C   0  0  0  0  0  0  0  0  0  0  0  0
   -8.8350    4.3460  -17.1900 C   0  0  0  0  0  0  0  0  0  0  0  0
  -10.2370    3.9890  -18.1620 Cl  0  0  0  0  0  0  0  0  0  0  0  0
   -8.8870    4.1560  -15.8160 C   0  0  0  0  0  0  0  0  0  0  0  0
   -6.6440    4.9820  -15.6480 N   0  0  0  0  0  0  0  0  0  0  0  0
   -7.7450    4.4830  -15.0750 C   0  0  0  0  0  0  0  0  0  0  0  0
   -7.5950    4.2390  -13.5810 C   0  0  2  0  0  0  0  0  0  0  0  0
   -6.7650    2.9470  -13.3610 C   0  0  0  0  0  0  0  0  0  0  0  0
   -7.1430    1.8440  -13.7480 O   0  0  0  0  0  0  0  0  0  0  0  0
   -5.6180    3.1380  -12.7030 N   0  0  0  0  0  0  0  0  0  0  0  0
   -4.4130    2.3460  -12.9540 C   0  0  0  0  0  0  0  0  0  0  0  0
   -3.7100    2.8550  -14.1900 C   0  0  0  0  0  0  0  0  0  0  0  0
   -3.5160    2.3890  -11.7380 C   0  0  0  0  0  0  0  0  0  0  0  0
   -8.7430    4.3150  -12.7070 N   0  0  0  0  0  0  0  0  0  0  0  0
   -8.5640    4.2510  -11.3240 C   0  0  0  0  0  0  0  0  0  0  0  0
   -8.8660    3.0720  -10.6480 C   0  0  0  0  0  0  0  0  0  0  0  0
   -8.8720    3.0440   -9.2590 C   0  0  0  0  0  0  0  0  0  0  0  0
   -9.2200    1.9170   -8.3320 C   0  0  0  0  0  0  0  0  0  0  0  0
   -9.0170    2.5180   -7.0200 N   0  0  0  0  0  0  0  0  0  0  0  0
   -8.7320    3.9510   -7.0670 C   0  0  0  0  0  0  0  0  0  0  0  0
   -8.5510    4.1860   -8.5380 C   0  0  0  0  0  0  0  0  0  0  0  0
   -8.1890    5.3470   -9.2150 C   0  0  0  0  0  0  0  0  0  0  0  0
   -8.1910    5.3800  -10.5990 C   0  0  0  0  0  0  0  0  0  0  0  0
 18 16  1  0
 17 16  1  0
 16 15  1  0
 15 13  1  0
 14 13  2  0
 13 12  1  0
 12 19  1  6
 20 19  1  0
 20 28  2  0
 28 27  1  0
 27 26  2  0
 26 22  1  0
 22 21  2  0
 21 20  1  0
 23 22  1  0
 24 23  1  0
 25 24  1  0
 26 25  1  0
 12 11  1  0
 11  9  1  0
  9  7  2  0
  8  7  1  0
  7  6  1  0
  6  5  2  0
  5  2  1  0
  3  2  1  0
  4  2  1  0
  2  1  1  0
 10  5  1  0
 11 10  2  0
M  END
$$$$
