XX01ZVNS2B-x0425_B_301_1_XX01ZVNS2B-x4590+B+203+1__LIG
     RDKit          3D

 11 11  0  0  0  0  0  0  0  0999 V2000
   -2.2990    5.0160  -16.9210 N   0  0  0  0  0  0  0  0  0  0  0  0
   -3.5920    5.1990  -16.2620 C   0  0  0  0  0  0  0  0  0  0  0  0
   -4.7310    5.1680  -17.2580 C   0  0  0  0  0  0  0  0  0  0  0  0
   -6.0320    4.9150  -16.8330 C   0  0  0  0  0  0  0  0  0  0  0  0
   -4.5180    5.3920  -18.6100 C   0  0  0  0  0  0  0  0  0  0  0  0
   -5.5930    5.3640  -19.4770 C   0  0  0  0  0  0  0  0  0  0  0  0
   -6.8560    5.1170  -19.0930 N   0  0  0  0  0  0  0  0  0  0  0  0
   -7.0630    4.8910  -17.7840 C   0  0  0  0  0  0  0  0  0  0  0  0
   -8.3410    4.6010  -17.3920 N   0  0  0  0  0  0  0  0  0  0  0  0
   -9.3870    4.2670  -18.3500 C   0  0  0  0  0  0  0  0  0  0  0  0
   -8.7210    4.5850  -15.9870 C   0  0  0  0  0  0  0  0  0  0  0  0
 11  9  1  0
 10  9  1  0
  9  8  1  0
  8  4  1  0
  4  3  2  0
  3  2  1  0
  2  1  1  0
  5  3  1  0
  6  5  2  0
  7  6  1  0
  8  7  2  0
M  END
$$$$
