A71EV2A-x4894_A_201_1_A71EV2A-x0911+A+147+1__LIG
     RDKit          3D

 21 22  0  0  0  0  0  0  0  0999 V2000
   10.4120   16.9090   19.3360 O   0  0  0  0  0  0  0  0  0  0  0  0
   10.9170   15.8000   19.5050 C   0  0  0  0  0  0  0  0  0  0  0  0
   11.2970   15.0430   18.4840 N   0  0  0  0  0  0  0  0  0  0  0  0
   11.0600   15.2260   20.9280 C   0  0  1  0  0  0  0  0  0  0  0  0
   11.7970   14.0010   20.9580 O   0  0  0  0  0  0  0  0  0  0  0  0
   11.7500   16.2410   21.8470 C   0  0  0  0  0  0  0  0  0  0  0  0
   11.7850   15.7610   23.2920 C   0  0  0  0  0  0  0  0  0  0  0  0
   10.3760   15.4780   23.7840 C   0  0  0  0  0  0  0  0  0  0  0  0
    9.6480   14.9550   21.4600 C   0  0  0  0  0  0  0  0  0  0  0  0
    9.6080   14.5950   22.8840 N   0  0  0  0  0  0  0  0  0  0  0  0
    8.7110   13.6750   23.3170 C   0  0  0  0  0  0  0  0  0  0  0  0
    7.9010   13.1550   22.5630 O   0  0  0  0  0  0  0  0  0  0  0  0
    8.6950   13.3710   24.8060 C   0  0  0  0  0  0  0  0  0  0  0  0
    7.9210   12.1150   25.1500 C   0  0  0  0  0  0  0  0  0  0  0  0
    8.2370   10.8370   24.6570 C   0  0  0  0  0  0  0  0  0  0  0  0
    9.6510   10.6510   23.6160 S   0  0  0  0  0  0  0  0  0  0  0  0
    9.6550    8.9080   23.1910 C   0  0  0  0  0  0  0  0  0  0  0  0
    6.8500   12.2260   26.0360 C   0  0  0  0  0  0  0  0  0  0  0  0
    6.1130   11.1180   26.4160 C   0  0  0  0  0  0  0  0  0  0  0  0
    6.4190    9.8790   25.9130 C   0  0  0  0  0  0  0  0  0  0  0  0
    7.4780    9.7270   25.0350 C   0  0  0  0  0  0  0  0  0  0  0  0
 17 16  1  0
 16 15  1  0
 15 21  2  0
 21 20  1  0
 20 19  2  0
 19 18  1  0
 18 14  2  0
 15 14  1  0
 14 13  1  0
 13 11  1  0
 12 11  2  0
 11 10  1  0
 10  8  1  0
  8  7  1  0
  7  6  1  0
  6  4  1  0
  4  5  1  6
  4  2  1  0
  3  2  1  0
  2  1  2  0
  9  4  1  0
 10  9  1  0
M  END
$$$$
