A71EV2A-x3939_A_201_1_A71EV2A-x0911+A+147+1__LIG
     RDKit          3D

 21 22  0  0  0  0  0  0  0  0999 V2000
   10.2310   16.6350   19.0320 O   0  0  0  0  0  0  0  0  0  0  0  0
   10.5820   15.4810   19.3210 C   0  0  0  0  0  0  0  0  0  0  0  0
   11.0040   14.5980   18.4220 N   0  0  0  0  0  0  0  0  0  0  0  0
   10.4680   14.9590   20.7420 C   0  0  1  0  0  0  0  0  0  0  0  0
   11.6210   15.4200   21.6640 C   0  0  0  0  0  0  0  0  0  0  0  0
   11.5130   14.7180   23.0190 C   0  0  0  0  0  0  0  0  0  0  0  0
   10.1240   14.9460   23.6510 C   0  0  0  0  0  0  0  0  0  0  0  0
    9.1740   15.3900   21.4220 C   0  0  0  0  0  0  0  0  0  0  0  0
    9.0390   14.6670   22.6900 N   0  0  0  0  0  0  0  0  0  0  0  0
    7.9680   13.8570   22.8690 C   0  0  0  0  0  0  0  0  0  0  0  0
    7.1820   13.6420   21.9690 O   0  0  0  0  0  0  0  0  0  0  0  0
    7.6280   13.3210   24.2720 C   0  0  2  0  0  0  0  0  0  0  0  0
    8.0220   14.0610   25.4190 O   0  0  0  0  0  0  0  0  0  0  0  0
    7.1830   15.1810   25.6670 C   0  0  0  0  0  0  0  0  0  0  0  0
    8.0120   11.8590   24.3720 C   0  0  0  0  0  0  0  0  0  0  0  0
    7.2000   10.9630   25.0860 C   0  0  0  0  0  0  0  0  0  0  0  0
    6.1800   11.4230   26.0970 C   0  0  0  0  0  0  0  0  0  0  0  0
    7.3860    9.6010   24.8800 C   0  0  0  0  0  0  0  0  0  0  0  0
    8.3860    9.1260   24.0490 C   0  0  0  0  0  0  0  0  0  0  0  0
    9.2410   10.0040   23.4380 C   0  0  0  0  0  0  0  0  0  0  0  0
    9.0530   11.3670   23.5900 C   0  0  0  0  0  0  0  0  0  0  0  0
 14 13  1  0
 12 13  1  1
 12 10  1  0
 11 10  2  0
 10  9  1  0
  9  7  1  0
  7  6  1  0
  6  5  1  0
  5  4  1  0
  4  2  1  6
  3  2  1  0
  2  1  2  0
  8  4  1  0
  9  8  1  0
 15 12  1  0
 15 21  2  0
 21 20  1  0
 20 19  2  0
 19 18  1  0
 18 16  2  0
 16 15  1  0
 17 16  1  0
M  END
$$$$
