XX01ZVNS2B-x3696_B_203_1_XX01ZVNS2B-x4590+B+203+1__LIG
     RDKit          3D

 24 27  0  0  0  0  0  0  0  0999 V2000
  -10.4460    3.8140  -17.7390 F   0  0  0  0  0  0  0  0  0  0  0  0
   -9.2090    4.0660  -17.2200 C   0  0  0  0  0  0  0  0  0  0  0  0
   -9.0650    4.1200  -15.8470 C   0  0  0  0  0  0  0  0  0  0  0  0
   -8.1940    4.3280  -18.1030 C   0  0  0  0  0  0  0  0  0  0  0  0
   -6.9730    4.7100  -17.5680 C   0  0  0  0  0  0  0  0  0  0  0  0
   -6.7570    4.8050  -16.1780 C   0  0  0  0  0  0  0  0  0  0  0  0
   -5.4110    5.2280  -16.0620 C   0  0  0  0  0  0  0  0  0  0  0  0
   -4.8490    5.3840  -17.2450 N   0  0  0  0  0  0  0  0  0  0  0  0
   -5.8070    5.0690  -18.1640 N   0  0  0  0  0  0  0  0  0  0  0  0
   -7.8270    4.4970  -15.3130 C   0  0  0  0  0  0  0  0  0  0  0  0
   -7.6600    4.6090  -13.8190 C   0  0  0  0  0  0  0  0  0  0  0  0
   -6.6510    5.1200  -13.3390 O   0  0  0  0  0  0  0  0  0  0  0  0
   -8.6530    4.1010  -13.0440 N   0  0  0  0  0  0  0  0  0  0  0  0
   -8.6610    4.0340  -11.6150 C   0  0  0  0  0  0  0  0  0  0  0  0
   -8.5460    5.2330  -10.8850 C   0  0  0  0  0  0  0  0  0  0  0  0
   -8.3790    6.4850  -11.5740 C   0  0  0  0  0  0  0  0  0  0  0  0
   -8.2390    7.4960  -12.0820 N   0  0  0  0  0  0  0  0  0  0  0  0
   -8.7870    2.8280  -10.9140 C   0  0  0  0  0  0  0  0  0  0  0  0
   -8.8210    2.8200   -9.5170 C   0  0  0  0  0  0  0  0  0  0  0  0
   -9.0500    1.6750   -8.5740 C   0  0  0  0  0  0  0  0  0  0  0  0
   -8.7240    2.2850   -7.2920 N   0  0  0  0  0  0  0  0  0  0  0  0
   -8.7070    3.7450   -7.3320 C   0  0  0  0  0  0  0  0  0  0  0  0
   -8.6930    4.0070   -8.8100 C   0  0  0  0  0  0  0  0  0  0  0  0
   -8.5600    5.2070   -9.4940 C   0  0  0  0  0  0  0  0  0  0  0  0
 17 16  3  0
 16 15  1  0
 15 24  2  0
 24 23  1  0
 23 19  2  0
 19 18  1  0
 18 14  2  0
 15 14  1  0
 14 13  1  0
 13 11  1  0
 12 11  2  0
 11 10  1  0
 10  3  1  0
  3  2  2  0
  2  1  1  0
  4  2  1  0
  5  4  2  0
  5  9  1  0
  9  8  1  0
  8  7  2  0
  7  6  1  0
 10  6  2  0
  6  5  1  0
 20 19  1  0
 21 20  1  0
 22 21  1  0
 23 22  1  0
M  END
$$$$
