XX01ZVNS2B-x3556_B_203_5_XX01ZVNS2B-x4590+B+203+1__LIG
     RDKit          3D

 23 26  0  0  0  0  0  0  0  0999 V2000
   -9.3870    3.9810  -18.1180 C   0  0  0  0  0  0  0  0  0  0  0  0
   -8.2270    4.3640  -17.2500 C   0  0  0  0  0  0  0  0  0  0  0  0
   -8.3710    4.4780  -15.8420 C   0  0  0  0  0  0  0  0  0  0  0  0
   -7.2890    4.8350  -15.0490 C   0  0  0  0  0  0  0  0  0  0  0  0
   -7.4070    5.0230  -13.5670 C   0  0  0  0  0  0  0  0  0  0  0  0
   -6.7040    5.8660  -13.0180 O   0  0  0  0  0  0  0  0  0  0  0  0
   -8.2390    4.1900  -12.8930 N   0  0  0  0  0  0  0  0  0  0  0  0
   -8.4390    4.1450  -11.4850 C   0  0  0  0  0  0  0  0  0  0  0  0
   -8.2730    5.3160  -10.7470 C   0  0  0  0  0  0  0  0  0  0  0  0
   -8.3920    5.2990   -9.3670 C   0  0  0  0  0  0  0  0  0  0  0  0
   -8.6390    4.0900   -8.7280 C   0  0  0  0  0  0  0  0  0  0  0  0
   -8.8130    2.9210   -9.4570 C   0  0  0  0  0  0  0  0  0  0  0  0
   -8.6780    2.9230  -10.8410 C   0  0  0  0  0  0  0  0  0  0  0  0
   -9.0780    1.7840   -8.5100 C   0  0  0  0  0  0  0  0  0  0  0  0
   -8.6080    2.3420   -7.2300 N   0  0  0  0  0  0  0  0  0  0  0  0
   -8.8270    3.7980   -7.2650 C   0  0  0  0  0  0  0  0  0  0  0  0
   -6.0460    5.0240  -15.7140 C   0  0  0  0  0  0  0  0  0  0  0  0
   -4.7130    5.3570  -15.3670 C   0  0  0  0  0  0  0  0  0  0  0  0
   -3.9240    5.4070  -16.4230 N   0  0  0  0  0  0  0  0  0  0  0  0
   -4.7220    5.0970  -17.5010 N   0  0  0  0  0  0  0  0  0  0  0  0
   -4.1550    5.0330  -18.8520 C   0  0  0  0  0  0  0  0  0  0  0  0
   -6.0150    4.8880  -17.1050 C   0  0  0  0  0  0  0  0  0  0  0  0
   -7.0660    4.5530  -17.8750 N   0  0  0  0  0  0  0  0  0  0  0  0
  1  2  1  0
  2  3  2  0
  3  4  1  0
  4  5  1  0
  5  6  2  0
  5  7  1  0
  7  8  1  0
  8  9  2  0
  9 10  1  0
 10 11  2  0
 11 12  1  0
 12 13  2  0
 12 14  1  0
 14 15  1  0
 15 16  1  0
  4 17  2  0
 17 18  1  0
 18 19  2  0
 19 20  1  0
 20 21  1  0
 20 22  1  0
 22 23  2  0
  2 23  1  0
  8 13  1  0
 17 22  1  0
 11 16  1  0
M  END
$$$$
