A71EV2A-x4608_A_201_1_A71EV2A-x0911+A+147+1__LIG
     RDKit          3D

 21 23  0  0  0  0  0  0  0  0999 V2000
   10.2680   16.5110   19.1960 O   0  0  0  0  0  0  0  0  0  0  0  0
   10.6650   15.3770   19.4840 C   0  0  0  0  0  0  0  0  0  0  0  0
   11.2560   14.5860   18.6120 N   0  0  0  0  0  0  0  0  0  0  0  0
   10.5120   14.8190   20.8900 C   0  0  1  0  0  0  0  0  0  0  0  0
   11.7270   15.1540   21.7700 C   0  0  0  0  0  0  0  0  0  0  0  0
   11.6280   14.5050   23.1570 C   0  0  0  0  0  0  0  0  0  0  0  0
   10.2820   14.8060   23.8120 C   0  0  0  0  0  0  0  0  0  0  0  0
    9.2240   15.1840   21.6410 C   0  0  0  0  0  0  0  0  0  0  0  0
    9.1680   14.4570   22.9150 N   0  0  0  0  0  0  0  0  0  0  0  0
    8.2060   13.5420   23.1790 C   0  0  0  0  0  0  0  0  0  0  0  0
    7.3850   13.2130   22.3410 O   0  0  0  0  0  0  0  0  0  0  0  0
    8.2070   12.8420   24.5280 C   0  0  2  0  0  0  0  0  0  0  0  0
    8.5930   11.4000   24.2580 C   0  0  0  0  0  0  0  0  0  0  0  0
    9.4810   10.7970   23.4210 C   0  0  0  0  0  0  0  0  0  0  0  0
    6.8000   12.8940   25.1650 C   0  0  0  0  0  0  0  0  0  0  0  0
    6.7050   11.9640   26.3740 C   0  0  0  0  0  0  0  0  0  0  0  0
    6.8640   10.5050   25.9550 C   0  0  0  0  0  0  0  0  0  0  0  0
    7.9620   10.3300   24.9490 C   0  0  0  0  0  0  0  0  0  0  0  0
    8.4270    9.1750   24.5650 N   0  0  0  0  0  0  0  0  0  0  0  0
    9.3520    9.4790   23.6250 N   0  0  0  0  0  0  0  0  0  0  0  0
   10.0470    8.4030   22.9330 C   0  0  0  0  0  0  0  0  0  0  0  0
 21 20  1  0
 20 14  1  0
 14 13  2  0
 13 18  1  0
 19 18  2  0
 20 19  1  0
 18 17  1  0
 17 16  1  0
 16 15  1  0
 15 12  1  0
 13 12  1  0
 12 10  1  6
 11 10  2  0
 10  9  1  0
  9  7  1  0
  7  6  1  0
  6  5  1  0
  5  4  1  0
  4  2  1  6
  3  2  1  0
  2  1  2  0
  8  4  1  0
  9  8  1  0
M  END
$$$$
