A71EV2A-x5359_A_202_3_A71EV2A-x0911+A+147+1__LIG
     RDKit          3D

 21 22  0  0  0  0  0  0  0  0999 V2000
   -2.6790   16.3940   13.7390 O   0  0  0  0  0  0  0  0  0  0  0  0
   -1.7020   15.7240   14.0850 C   0  0  0  0  0  0  0  0  0  0  0  0
   -0.5280   15.8080   13.4780 N   0  0  0  0  0  0  0  0  0  0  0  0
   -1.8000   14.7190   15.2210 C   0  0  1  0  0  0  0  0  0  0  0  0
   -1.4350   13.3100   14.7400 C   0  0  0  0  0  0  0  0  0  0  0  0
   -1.5720   12.2940   15.8700 C   0  0  0  0  0  0  0  0  0  0  0  0
   -0.7390   12.6990   17.0780 C   0  0  0  0  0  0  0  0  0  0  0  0
   -0.8340   15.0570   16.3610 C   0  0  0  0  0  0  0  0  0  0  0  0
   -1.0370   14.0930   17.4600 N   0  0  0  0  0  0  0  0  0  0  0  0
   -0.9580   14.5710   19.0170 S   0  0  0  0  0  0  0  0  0  0  0  0
   -1.7110   15.7810   19.1280 O   0  0  0  0  0  0  0  0  0  0  0  0
   -1.3270   13.4500   19.8260 O   0  0  0  0  0  0  0  0  0  0  0  0
    0.7500   14.9630   19.3780 C   0  0  0  0  0  0  0  0  0  0  0  0
    1.6600   13.7610   19.4040 C   0  0  0  0  0  0  0  0  0  0  0  0
    1.6990   12.8610   20.4860 C   0  0  0  0  0  0  0  0  0  0  0  0
    0.9430   13.1300   21.7250 C   0  0  0  0  0  0  0  0  0  0  0  0
   -0.3440   13.1240   21.8470 C   0  0  0  0  0  0  0  0  0  0  0  0
    2.4320   13.4860   18.2760 C   0  0  0  0  0  0  0  0  0  0  0  0
    3.1830   12.3270   18.1890 C   0  0  0  0  0  0  0  0  0  0  0  0
    3.1910   11.4280   19.2330 C   0  0  0  0  0  0  0  0  0  0  0  0
    2.4640   11.6900   20.3800 C   0  0  0  0  0  0  0  0  0  0  0  0
 17 16  2  0
 16 15  1  0
 15 21  2  0
 21 20  1  0
 20 19  2  0
 19 18  1  0
 18 14  2  0
 15 14  1  0
 14 13  1  0
 13 10  1  0
 11 10  2  0
 12 10  2  0
 10  9  1  0
  9  7  1  0
  7  6  1  0
  6  5  1  0
  5  4  1  0
  4  2  1  6
  3  2  1  0
  2  1  2  0
  8  4  1  0
  9  8  1  0
M  END
$$$$
