XX01ZVNS2B-x0701_B_301_1_XX01ZVNS2B-x4590+B+203+1__LIG
     RDKit          3D

 11 12  0  0  0  0  0  0  0  0999 V2000
   -3.4950    5.2530  -16.0010 N   0  0  0  0  0  0  0  0  0  0  0  0
   -4.3700    5.1760  -16.7390 C   0  0  0  0  0  0  0  0  0  0  0  0
   -5.5090    5.0460  -17.6290 C   0  0  0  0  0  0  0  0  0  0  0  0
   -6.8660    4.7610  -17.3090 C   0  0  0  0  0  0  0  0  0  0  0  0
   -7.5160    4.6360  -18.5480 C   0  0  0  0  0  0  0  0  0  0  0  0
   -6.5710    4.8560  -19.5010 N   0  0  0  0  0  0  0  0  0  0  0  0
   -5.3410    5.1130  -18.9540 N   0  0  0  0  0  0  0  0  0  0  0  0
   -7.5950    4.5450  -16.1450 C   0  0  0  0  0  0  0  0  0  0  0  0
   -8.9330    4.1970  -16.2330 C   0  0  0  0  0  0  0  0  0  0  0  0
   -9.5590    4.0770  -17.4650 C   0  0  0  0  0  0  0  0  0  0  0  0
   -8.8600    4.3000  -18.6380 C   0  0  0  0  0  0  0  0  0  0  0  0
  2  1  3  0
  3  2  1  0
  3  7  2  0
  7  6  1  0
  6  5  1  0
  5 11  2  0
 11 10  1  0
 10  9  2  0
  9  8  1  0
  8  4  2  0
  4  3  1  0
  5  4  1  0
M  END
$$$$
