A71EV2A-x3954_A_201_1_A71EV2A-x0911+A+147+1__LIG
     RDKit          3D

 22 24  0  0  0  0  0  0  0  0999 V2000
   10.3620   16.6710   18.9200 O   0  0  0  0  0  0  0  0  0  0  0  0
   10.7090   15.5460   19.2930 C   0  0  0  0  0  0  0  0  0  0  0  0
   11.0520   14.5830   18.4510 N   0  0  0  0  0  0  0  0  0  0  0  0
   10.7600   15.1860   20.7680 C   0  0  1  0  0  0  0  0  0  0  0  0
   11.8530   15.9740   21.5060 C   0  0  0  0  0  0  0  0  0  0  0  0
   11.9280   15.5950   22.9900 C   0  0  0  0  0  0  0  0  0  0  0  0
   10.5690   15.7270   23.6590 C   0  0  0  0  0  0  0  0  0  0  0  0
    9.4380   15.4330   21.5010 C   0  0  0  0  0  0  0  0  0  0  0  0
    9.5470   14.9940   22.8970 N   0  0  0  0  0  0  0  0  0  0  0  0
    8.7550   14.0130   23.3730 C   0  0  0  0  0  0  0  0  0  0  0  0
    8.0840   13.3240   22.6260 O   0  0  0  0  0  0  0  0  0  0  0  0
    8.6880   13.7930   24.8830 C   0  0  1  0  0  0  0  0  0  0  0  0
    7.6500   14.7240   25.5840 C   0  0  0  0  0  0  0  0  0  0  0  0
    6.8260   13.8390   26.5400 C   0  0  0  0  0  0  0  0  0  0  0  0
    7.0300   12.4490   25.9940 C   0  0  0  0  0  0  0  0  0  0  0  0
    6.3780   11.2500   26.2510 C   0  0  0  0  0  0  0  0  0  0  0  0
    6.8140   10.0840   25.6480 C   0  0  0  0  0  0  0  0  0  0  0  0
    8.1160   12.4130   25.1130 C   0  0  0  0  0  0  0  0  0  0  0  0
    8.5770   11.2950   24.5310 N   0  0  0  0  0  0  0  0  0  0  0  0
    7.9380   10.1610   24.8010 C   0  0  0  0  0  0  0  0  0  0  0  0
    8.3500    8.9840   24.2750 O   0  0  0  0  0  0  0  0  0  0  0  0
    9.6060    8.9490   23.5900 C   0  0  0  0  0  0  0  0  0  0  0  0
 22 21  1  0
 21 20  1  0
 20 17  1  0
 17 16  2  0
 16 15  1  0
 15 18  2  0
 19 18  1  0
 20 19  2  0
 18 12  1  0
 12 10  1  6
 11 10  2  0
 10  9  1  0
  9  7  1  0
  7  6  1  0
  6  5  1  0
  5  4  1  0
  4  2  1  6
  3  2  1  0
  2  1  2  0
  8  4  1  0
  9  8  1  0
 13 12  1  0
 14 13  1  0
 15 14  1  0
M  END
$$$$
