A71EV2A-x4710_A_201_1_A71EV2A-x0911+A+147+1__LIG
     RDKit          3D

 19 20  0  0  0  0  0  0  0  0999 V2000
   11.8170   14.2330   24.6730 O   0  0  0  0  0  0  0  0  0  0  0  0
   11.5990   14.3900   23.4830 C   0  0  0  0  0  0  0  0  0  0  0  0
   12.7450   14.6340   22.5360 C   0  0  0  0  0  0  0  0  0  0  0  0
   12.3920   14.5330   21.0480 C   0  0  0  0  0  0  0  0  0  0  0  0
   11.0720   15.2640   20.7760 C   0  0  1  0  0  0  0  0  0  0  0  0
   10.7810   15.4080   19.2900 C   0  0  0  0  0  0  0  0  0  0  0  0
   10.0560   16.3160   18.8780 O   0  0  0  0  0  0  0  0  0  0  0  0
   11.3660   14.5360   18.4820 N   0  0  0  0  0  0  0  0  0  0  0  0
    9.9680   14.5470   21.5550 C   0  0  0  0  0  0  0  0  0  0  0  0
   10.3430   14.3620   22.9630 N   0  0  0  0  0  0  0  0  0  0  0  0
    9.2040   14.1050   23.8530 C   0  0  0  0  0  0  0  0  0  0  0  0
    8.8630   12.6380   24.0020 C   0  0  0  0  0  0  0  0  0  0  0  0
    9.6310   11.6560   23.3900 C   0  0  0  0  0  0  0  0  0  0  0  0
    9.3370   10.3130   23.5660 C   0  0  0  0  0  0  0  0  0  0  0  0
    8.2860    9.9300   24.3760 C   0  0  0  0  0  0  0  0  0  0  0  0
    7.7920   12.2430   24.7970 C   0  0  0  0  0  0  0  0  0  0  0  0
    7.5110   10.8930   25.0030 C   0  0  0  0  0  0  0  0  0  0  0  0
    6.2170   10.4280   26.1120 S   0  0  0  0  0  0  0  0  0  0  0  0
    5.4950   11.9990   26.6020 C   0  0  0  0  0  0  0  0  0  0  0  0
 19 18  1  0
 18 17  1  0
 17 15  2  0
 15 14  1  0
 14 13  2  0
 13 12  1  0
 12 11  1  0
 11 10  1  0
 10  9  1  0
  9  5  1  0
  5  6  1  6
  8  6  1  0
  7  6  2  0
  5  4  1  0
  4  3  1  0
  3  2  1  0
 10  2  1  0
  2  1  2  0
 16 12  2  0
 17 16  1  0
M  END
$$$$
