A71EV2A-x4736_A_201_1_A71EV2A-x0911+A+147+1__LIG
     RDKit          3D

 17 18  0  0  0  0  0  0  0  0999 V2000
    9.9730   16.4440   19.1970 O   0  0  0  0  0  0  0  0  0  0  0  0
   10.4710   15.3610   19.5160 C   0  0  0  0  0  0  0  0  0  0  0  0
   11.1360   14.5860   18.6640 N   0  0  0  0  0  0  0  0  0  0  0  0
   10.3430   14.8340   20.9340 C   0  0  1  0  0  0  0  0  0  0  0  0
   11.4060   15.4560   21.8480 C   0  0  0  0  0  0  0  0  0  0  0  0
   11.3350   14.8390   23.2420 C   0  0  0  0  0  0  0  0  0  0  0  0
    9.9480   15.0350   23.8200 C   0  0  0  0  0  0  0  0  0  0  0  0
    8.9470   15.0330   21.5380 C   0  0  0  0  0  0  0  0  0  0  0  0
    8.8990   14.5300   22.9160 N   0  0  0  0  0  0  0  0  0  0  0  0
    7.8900   13.7300   23.3270 C   0  0  0  0  0  0  0  0  0  0  0  0
    7.2040   13.1280   22.5270 O   0  0  0  0  0  0  0  0  0  0  0  0
    7.5450   13.7340   24.8110 C   0  0  1  0  0  0  0  0  0  0  0  0
    6.3090   12.9890   25.2530 C   0  0  0  0  0  0  0  0  0  0  0  0
    7.6570   12.4540   25.6150 C   0  0  1  0  0  0  0  0  0  0  0  0
    8.0840   11.1080   25.0440 C   0  0  0  0  0  0  0  0  0  0  0  0
    9.8520   10.8650   24.7750 S   0  0  0  0  0  0  0  0  0  0  0  0
    9.8540    9.3230   23.8620 C   0  0  0  0  0  0  0  0  0  0  0  0
 17 16  1  0
 16 15  1  0
 14 15  1  6
 14 13  1  0
 13 12  1  0
 14 12  1  0
 12 10  1  6
 11 10  2  0
 10  9  1  0
  9  7  1  0
  7  6  1  0
  6  5  1  0
  5  4  1  0
  4  2  1  6
  3  2  1  0
  2  1  2  0
  8  4  1  0
  9  8  1  0
M  END
$$$$
