XX01ZVNS2B-x3654_B_203_5_XX01ZVNS2B-x4590+B+203+1__LIG
     RDKit          3D

 29 32  0  0  0  0  0  0  0  0999 V2000
   -4.6750    8.4420  -18.2960 O   0  0  0  0  0  0  0  0  0  0  0  0
   -3.7020    8.1550  -17.2830 S   0  0  0  0  0  0  0  0  0  0  0  0
   -2.3960    8.7350  -17.4120 O   0  0  0  0  0  0  0  0  0  0  0  0
   -4.3710    8.6030  -15.7210 C   0  0  0  0  0  0  0  0  0  0  0  0
   -3.4680    6.2670  -17.2650 C   0  0  0  0  0  0  0  0  0  0  0  0
   -2.8100    5.8370  -18.5780 C   0  0  0  0  0  0  0  0  0  0  0  0
   -2.5360    5.9020  -16.1080 C   0  0  0  0  0  0  0  0  0  0  0  0
   -4.8330    5.5970  -17.0970 C   0  0  0  0  0  0  0  0  0  0  0  0
   -5.6450    5.2790  -18.1420 N   0  0  0  0  0  0  0  0  0  0  0  0
   -6.8200    4.8690  -17.5400 C   0  0  0  0  0  0  0  0  0  0  0  0
   -6.6670    4.9360  -16.1550 C   0  0  0  0  0  0  0  0  0  0  0  0
   -5.3800    5.3900  -15.9150 N   0  0  0  0  0  0  0  0  0  0  0  0
   -8.0370    4.4820  -18.0860 C   0  0  0  0  0  0  0  0  0  0  0  0
   -9.0650    4.1930  -17.2260 C   0  0  0  0  0  0  0  0  0  0  0  0
  -10.2730    3.8770  -17.7630 F   0  0  0  0  0  0  0  0  0  0  0  0
   -8.9530    4.2350  -15.8530 C   0  0  0  0  0  0  0  0  0  0  0  0
   -7.7310    4.6160  -15.3000 C   0  0  0  0  0  0  0  0  0  0  0  0
   -7.5720    4.7350  -13.8100 C   0  0  0  0  0  0  0  0  0  0  0  0
   -6.6970    5.4540  -13.3310 O   0  0  0  0  0  0  0  0  0  0  0  0
   -8.4430    4.0230  -13.0510 N   0  0  0  0  0  0  0  0  0  0  0  0
   -8.5130    4.0150  -11.6320 C   0  0  0  0  0  0  0  0  0  0  0  0
   -8.8990    2.8740  -10.9310 C   0  0  0  0  0  0  0  0  0  0  0  0
   -8.9340    2.8900   -9.5380 C   0  0  0  0  0  0  0  0  0  0  0  0
   -9.3420    1.8080   -8.5830 C   0  0  0  0  0  0  0  0  0  0  0  0
   -8.8730    2.3560   -7.3180 N   0  0  0  0  0  0  0  0  0  0  0  0
   -8.6500    3.7990   -7.3650 C   0  0  0  0  0  0  0  0  0  0  0  0
   -8.5730    4.0350   -8.8440 C   0  0  0  0  0  0  0  0  0  0  0  0
   -8.1970    5.1740   -9.5460 C   0  0  0  0  0  0  0  0  0  0  0  0
   -8.1700    5.1670  -10.9290 C   0  0  0  0  0  0  0  0  0  0  0  0
  6  5  1  0
  7  5  1  0
  8  5  1  0
  8 12  2  0
 12 11  1  0
 11 17  2  0
 18 17  1  0
 19 18  2  0
 20 18  1  0
 21 20  1  0
 21 29  2  0
 29 28  1  0
 28 27  2  0
 27 23  1  0
 23 22  2  0
 22 21  1  0
 24 23  1  0
 25 24  1  0
 26 25  1  0
 27 26  1  0
 17 16  1  0
 16 14  2  0
 15 14  1  0
 14 13  1  0
 13 10  2  0
 11 10  1  0
 10  9  1  0
  9  8  1  0
  5  2  1  0
  4  2  1  0
  3  2  2  0
  2  1  2  0
M  END
$$$$
