XX01ZVNS2B-x3440_B_203_1_XX01ZVNS2B-x4590+B+203+1__LIG
     RDKit          3D

 24 27  0  0  0  0  0  0  0  0999 V2000
   -6.8030    5.7600  -13.7120 O   0  0  0  0  0  0  0  0  0  0  0  0
   -7.6700    5.0140  -14.1650 C   0  0  0  0  0  0  0  0  0  0  0  0
   -8.4990    4.2920  -13.3760 N   0  0  0  0  0  0  0  0  0  0  0  0
   -8.5980    4.3740  -11.9600 C   0  0  0  0  0  0  0  0  0  0  0  0
   -8.2610    5.5520  -11.3040 C   0  0  0  0  0  0  0  0  0  0  0  0
   -8.3370    5.6350   -9.9300 C   0  0  0  0  0  0  0  0  0  0  0  0
   -8.6310    4.5050   -9.1860 C   0  0  0  0  0  0  0  0  0  0  0  0
   -8.9770    3.3080   -9.8160 C   0  0  0  0  0  0  0  0  0  0  0  0
   -8.9250    3.2500  -11.2040 C   0  0  0  0  0  0  0  0  0  0  0  0
   -9.3810    2.1080   -8.9960 C   0  0  0  0  0  0  0  0  0  0  0  0
   -8.3480    1.6330   -8.0880 N   0  0  0  0  0  0  0  0  0  0  0  0
   -8.2790    2.3890   -6.8360 C   0  0  0  0  0  0  0  0  0  0  0  0
   -7.7930    3.8060   -7.0360 C   0  0  0  0  0  0  0  0  0  0  0  0
   -8.7540    4.5170   -7.8220 O   0  0  0  0  0  0  0  0  0  0  0  0
   -7.7930    4.8300  -15.6520 C   0  0  0  0  0  0  0  0  0  0  0  0
   -8.9950    4.4580  -16.2440 C   0  0  0  0  0  0  0  0  0  0  0  0
   -9.0990    4.2990  -17.6120 C   0  0  0  0  0  0  0  0  0  0  0  0
  -10.6480    3.8850  -18.3040 Cl  0  0  0  0  0  0  0  0  0  0  0  0
   -8.0220    4.4380  -18.4700 C   0  0  0  0  0  0  0  0  0  0  0  0
   -6.8050    4.8000  -17.9020 C   0  0  0  0  0  0  0  0  0  0  0  0
   -5.5840    4.9920  -18.4490 N   0  0  0  0  0  0  0  0  0  0  0  0
   -4.6580    5.2870  -17.4940 N   0  0  0  0  0  0  0  0  0  0  0  0
   -5.2910    5.2820  -16.3340 C   0  0  0  0  0  0  0  0  0  0  0  0
   -6.6640    4.9820  -16.5130 C   0  0  0  0  0  0  0  0  0  0  0  0
  1  2  2  0
  2  3  1  0
  3  4  1  0
  4  5  2  0
  5  6  1  0
  6  7  2  0
  7  8  1  0
  8  9  2  0
  8 10  1  0
 10 11  1  0
 11 12  1  0
 12 13  1  0
 13 14  1  0
  2 15  1  0
 15 16  2  0
 16 17  1  0
 17 18  1  0
 17 19  2  0
 19 20  1  0
 20 21  1  0
 21 22  1  0
 22 23  2  0
 23 24  1  0
  4  9  1  0
 15 24  1  0
  7 14  1  0
 20 24  2  0
M  END
$$$$
