XX01ZVNS2B-x2126_B_203_1_XX01ZVNS2B-x4590+B+203+1__LIG
     RDKit          3D

 25 26  0  0  0  0  0  0  0  0999 V2000
   -8.0460    7.0790   -9.5940 C   0  0  0  0  0  0  0  0  0  0  0  0
   -8.0470    5.7950  -10.2780 N   0  0  0  0  0  0  0  0  0  0  0  0
   -7.9210    5.6870  -11.6920 O   0  0  0  0  0  0  0  0  0  0  0  0
   -7.9690    4.3430  -11.9890 C   0  0  0  0  0  0  0  0  0  0  0  0
   -7.8490    3.9250  -13.3940 C   0  0  0  0  0  0  0  0  0  0  0  0
   -7.8750    2.7350  -13.6970 O   0  0  0  0  0  0  0  0  0  0  0  0
   -7.6970    4.9470  -14.2760 N   0  0  0  0  0  0  0  0  0  0  0  0
   -7.7230    4.8700  -15.6840 C   0  0  0  0  0  0  0  0  0  0  0  0
   -8.8210    4.3270  -16.3370 C   0  0  0  0  0  0  0  0  0  0  0  0
   -8.8080    4.2530  -17.7170 C   0  0  0  0  0  0  0  0  0  0  0  0
  -10.2090    3.6190  -18.5350 Cl  0  0  0  0  0  0  0  0  0  0  0  0
   -7.7040    4.6210  -18.4460 C   0  0  0  0  0  0  0  0  0  0  0  0
   -6.5840    5.1220  -17.7970 C   0  0  0  0  0  0  0  0  0  0  0  0
   -5.3490    5.5330  -18.5480 C   0  0  0  0  0  0  0  0  0  0  0  0
   -4.2480    5.4790  -18.0020 O   0  0  0  0  0  0  0  0  0  0  0  0
   -5.5170    5.9770  -19.7980 N   0  0  0  0  0  0  0  0  0  0  0  0
   -4.4410    6.3520  -20.7660 C   0  0  0  0  0  0  0  0  0  0  0  0
   -5.0620    7.1240  -21.9320 C   0  0  0  0  0  0  0  0  0  0  0  0
   -3.3620    7.2200  -20.1120 C   0  0  0  0  0  0  0  0  0  0  0  0
   -3.8120    5.0590  -21.2970 C   0  0  0  0  0  0  0  0  0  0  0  0
   -4.7190    4.2050  -21.9780 O   0  0  0  0  0  0  0  0  0  0  0  0
   -6.5970    5.2430  -16.4120 C   0  0  0  0  0  0  0  0  0  0  0  0
   -8.1120    3.6420  -10.8390 C   0  0  0  0  0  0  0  0  0  0  0  0
   -8.1460    4.5480   -9.7740 C   0  0  0  0  0  0  0  0  0  0  0  0
   -8.2700    4.2730   -8.5320 O   0  0  0  0  0  0  0  0  0  0  0  0
  1  2  1  0
  2  3  1  0
  3  4  1  0
  4  5  1  0
  5  6  2  0
  5  7  1  0
  7  8  1  0
  8  9  2  0
  9 10  1  0
 10 11  1  0
 10 12  2  0
 12 13  1  0
 13 14  1  0
 14 15  2  0
 14 16  1  0
 16 17  1  0
 17 18  1  0
 17 19  1  0
 17 20  1  0
 20 21  1  0
 13 22  2  0
  4 23  2  0
 23 24  1  0
 24 25  2  0
  2 24  1  0
  8 22  1  0
M  END
$$$$
