A71EV2A-x3181_A_202_1_A71EV2A-x3181+A+202+1__LIG
     RDKit          3D

 20 22  0  0  0  0  0  0  0  0999 V2000
   23.4590   19.8740   22.7410 O   0  0  0  0  0  0  0  0  0  0  0  0
   22.8550   20.5390   21.8860 C   0  0  0  0  0  0  0  0  0  0  0  0
   23.5570   21.0260   20.6620 C   0  0  0  0  0  0  0  0  0  0  0  0
   22.8780   21.5940   19.6670 N   0  0  0  0  0  0  0  0  0  0  0  0
   24.9660   20.9970   20.3710 C   0  0  0  0  0  0  0  0  0  0  0  0
   25.0760   21.6090   19.1150 C   0  0  0  0  0  0  0  0  0  0  0  0
   26.3130   21.8050   18.5060 C   0  0  0  0  0  0  0  0  0  0  0  0
   27.4470   21.3750   19.1730 C   0  0  0  0  0  0  0  0  0  0  0  0
   27.3570   20.7630   20.4180 C   0  0  0  0  0  0  0  0  0  0  0  0
   26.1150   20.5690   21.0230 C   0  0  0  0  0  0  0  0  0  0  0  0
   23.8090   21.9500   18.7320 N   0  0  0  0  0  0  0  0  0  0  0  0
   23.3800   22.5880   17.4930 C   0  0  0  0  0  0  0  0  0  0  0  0
   21.5750   20.9220   22.0040 N   0  0  0  0  0  0  0  0  0  0  0  0
   20.7060   20.3650   23.0390 C   0  0  0  0  0  0  0  0  0  0  0  0
   20.1270   19.0250   22.5420 C   0  0  0  0  0  0  0  0  0  0  0  0
   19.2540   19.2460   21.3920 N   0  0  0  0  0  0  0  0  0  0  0  0
   19.7310   19.2830   20.1230 N   0  0  0  0  0  0  0  0  0  0  0  0
   18.6340   19.4550   19.4180 C   0  0  0  0  0  0  0  0  0  0  0  0
   17.4980   19.5600   20.1420 N   0  0  0  0  0  0  0  0  0  0  0  0
   17.9370   19.4210   21.3740 C   0  0  0  0  0  0  0  0  0  0  0  0
 12 11  1  0
 11  4  1  0
  4  3  2  0
  3  2  1  0
  2  1  2  0
 13  2  1  0
 14 13  1  0
 15 14  1  0
 16 15  1  0
 16 20  1  0
 20 19  2  0
 19 18  1  0
 18 17  2  0
 17 16  1  0
  5  3  1  0
  5 10  2  0
 10  9  1  0
  9  8  2  0
  8  7  1  0
  7  6  2  0
  6  5  1  0
 11  6  1  0
M  END
$$$$
