XX01ZVNS2B-x5139_B_203_7_XX01ZVNS2B-x4590+B+203+1__LIG
     RDKit          3D

 24 27  0  0  0  0  0  0  0  0999 V2000
   -9.9860    3.8350  -17.6820 F   0  0  0  0  0  0  0  0  0  0  0  0
   -8.8070    4.0830  -17.0410 C   0  0  0  0  0  0  0  0  0  0  0  0
   -8.8080    4.1380  -15.6660 C   0  0  0  0  0  0  0  0  0  0  0  0
   -7.7040    4.3670  -17.8090 C   0  0  0  0  0  0  0  0  0  0  0  0
   -6.5310    4.7540  -17.1650 C   0  0  0  0  0  0  0  0  0  0  0  0
   -5.3140    5.0270  -17.9550 C   0  0  0  0  0  0  0  0  0  0  0  0
   -4.1220    5.1690  -17.3600 N   0  0  0  0  0  0  0  0  0  0  0  0
   -3.2330    5.3160  -18.3760 N   0  0  0  0  0  0  0  0  0  0  0  0
   -3.8330    5.2900  -19.5710 C   0  0  0  0  0  0  0  0  0  0  0  0
   -5.1730    5.1050  -19.3540 C   0  0  0  0  0  0  0  0  0  0  0  0
   -6.5020    4.8460  -15.7740 C   0  0  0  0  0  0  0  0  0  0  0  0
   -7.6360    4.5320  -15.0220 C   0  0  0  0  0  0  0  0  0  0  0  0
   -7.5380    4.6600  -13.5320 C   0  0  0  0  0  0  0  0  0  0  0  0
   -6.7140    5.4150  -13.0240 O   0  0  0  0  0  0  0  0  0  0  0  0
   -8.3950    3.9070  -12.7940 N   0  0  0  0  0  0  0  0  0  0  0  0
   -8.5140    3.9330  -11.3730 C   0  0  0  0  0  0  0  0  0  0  0  0
   -8.7210    2.7410  -10.6820 C   0  0  0  0  0  0  0  0  0  0  0  0
   -8.8060    2.7370   -9.2940 C   0  0  0  0  0  0  0  0  0  0  0  0
   -9.0920    1.6000   -8.3560 C   0  0  0  0  0  0  0  0  0  0  0  0
   -8.8400    2.1900   -7.0290 N   0  0  0  0  0  0  0  0  0  0  0  0
   -8.8190    3.6660   -7.1130 C   0  0  0  0  0  0  0  0  0  0  0  0
   -8.6600    3.9210   -8.5840 C   0  0  0  0  0  0  0  0  0  0  0  0
   -8.4430    5.1160   -9.2690 C   0  0  0  0  0  0  0  0  0  0  0  0
   -8.3810    5.1250  -10.6560 C   0  0  0  0  0  0  0  0  0  0  0  0
 14 13  2  0
 15 13  1  0
 16 15  1  0
 16 24  2  0
 24 23  1  0
 23 22  2  0
 22 18  1  0
 18 17  2  0
 17 16  1  0
 19 18  1  0
 20 19  1  0
 21 20  1  0
 22 21  1  0
 13 12  1  0
 12  3  1  0
  3  2  2  0
  2  1  1  0
  4  2  1  0
  5  4  2  0
  6  5  1  0
  6 10  1  0
 10  9  2  0
  9  8  1  0
  8  7  1  0
  7  6  2  0
 11  5  1  0
 12 11  2  0
M  END
$$$$
