A71EV2A-x4017_C_201_1_A71EV2A-x0911+A+147+1__LIG
     RDKit          3D

 22 24  0  0  0  0  0  0  0  0999 V2000
   10.5240   16.8120   19.1430 O   0  0  0  0  0  0  0  0  0  0  0  0
   10.9050   15.6530   19.3720 C   0  0  0  0  0  0  0  0  0  0  0  0
   11.0330   14.7280   18.4290 N   0  0  0  0  0  0  0  0  0  0  0  0
   11.2290   15.2030   20.7870 C   0  0  1  0  0  0  0  0  0  0  0  0
   12.3070   16.1120   21.4090 C   0  0  0  0  0  0  0  0  0  0  0  0
   12.5750   15.7600   22.8710 C   0  0  0  0  0  0  0  0  0  0  0  0
   11.2880   15.7970   23.6540 C   0  0  0  0  0  0  0  0  0  0  0  0
    9.9690   15.1670   21.6590 C   0  0  0  0  0  0  0  0  0  0  0  0
   10.3230   14.8650   23.0550 N   0  0  0  0  0  0  0  0  0  0  0  0
   10.0940   13.7130   23.7570 C   0  0  0  0  0  0  0  0  0  0  0  0
   10.4190   13.5870   24.9380 O   0  0  0  0  0  0  0  0  0  0  0  0
    9.5710   12.6800   23.0580 N   0  0  0  0  0  0  0  0  0  0  0  0
    9.1680   11.5080   23.7330 C   0  0  0  0  0  0  0  0  0  0  0  0
    9.5540   10.2360   23.3150 C   0  0  0  0  0  0  0  0  0  0  0  0
    8.9120    9.1090   23.8070 C   0  0  0  0  0  0  0  0  0  0  0  0
    7.9060    9.2260   24.7560 C   0  0  0  0  0  0  0  0  0  0  0  0
    7.5770   10.4870   25.2280 C   0  0  0  0  0  0  0  0  0  0  0  0
    6.6770   10.8930   26.1620 N   0  0  0  0  0  0  0  0  0  0  0  0
    5.7050   10.0870   26.8860 C   0  0  0  0  0  0  0  0  0  0  0  0
    8.1960   11.6510   24.7410 C   0  0  0  0  0  0  0  0  0  0  0  0
    7.5900   12.7060   25.4710 C   0  0  0  0  0  0  0  0  0  0  0  0
    6.6920   12.2490   26.3170 N   0  0  0  0  0  0  0  0  0  0  0  0
 19 18  1  0
 18 22  1  0
 22 21  2  0
 21 20  1  0
 20 13  1  0
 13 12  1  0
 12 10  1  0
 11 10  2  0
 10  9  1  0
  9  7  1  0
  7  6  1  0
  6  5  1  0
  5  4  1  0
  4  2  1  6
  3  2  1  0
  2  1  2  0
  8  4  1  0
  9  8  1  0
 14 13  2  0
 15 14  1  0
 16 15  2  0
 17 16  1  0
 20 17  2  0
 18 17  1  0
M  END
$$$$
