A71EV2A-x3221_A_201_1_A71EV2A-x0911+A+147+1__LIG
     RDKit          3D

 19 20  0  0  0  0  0  0  0  0999 V2000
   10.3650   16.4840   19.2370 O   0  0  0  0  0  0  0  0  0  0  0  0
   10.8290   15.3580   19.4470 C   0  0  0  0  0  0  0  0  0  0  0  0
   11.1310   14.5130   18.4720 N   0  0  0  0  0  0  0  0  0  0  0  0
   10.9980   14.8280   20.8600 C   0  0  1  0  0  0  0  0  0  0  0  0
   12.1330   15.5330   21.6270 C   0  0  0  0  0  0  0  0  0  0  0  0
   12.3000   14.9460   23.0340 C   0  0  0  0  0  0  0  0  0  0  0  0
   10.9730   14.9280   23.7930 C   0  0  0  0  0  0  0  0  0  0  0  0
    9.7090   14.9790   21.6730 C   0  0  0  0  0  0  0  0  0  0  0  0
    9.8960   14.3390   22.9760 N   0  0  0  0  0  0  0  0  0  0  0  0
    9.1490   13.2620   23.3090 C   0  0  0  0  0  0  0  0  0  0  0  0
    8.1560   12.9430   22.6750 O   0  0  0  0  0  0  0  0  0  0  0  0
    9.6410   12.4480   24.4920 C   0  0  0  0  0  0  0  0  0  0  0  0
    8.6940   11.3360   24.8330 C   0  0  0  0  0  0  0  0  0  0  0  0
    8.6630   10.0200   24.4990 C   0  0  0  0  0  0  0  0  0  0  0  0
    9.5410    9.2690   23.5500 C   0  0  0  0  0  0  0  0  0  0  0  0
    7.6470    9.3750   25.1780 N   0  0  0  0  0  0  0  0  0  0  0  0
    7.6640   11.5180   25.7200 N   0  0  0  0  0  0  0  0  0  0  0  0
    7.0580   10.3230   25.8950 C   0  0  0  0  0  0  0  0  0  0  0  0
    5.8210   10.1480   26.7150 C   0  0  0  0  0  0  0  0  0  0  0  0
 19 18  1  0
 18 16  2  0
 16 14  1  0
 15 14  1  0
 14 13  2  0
 13 12  1  0
 12 10  1  0
 11 10  2  0
 10  9  1  0
  9  7  1  0
  7  6  1  0
  6  5  1  0
  5  4  1  0
  4  2  1  6
  3  2  1  0
  2  1  2  0
  8  4  1  0
  9  8  1  0
 17 13  1  0
 18 17  1  0
M  END
$$$$
