A71EV2A-x4445_A_201_1_A71EV2A-x0911+A+147+1__LIG
     RDKit          3D

 21 22  0  0  0  0  0  0  0  0999 V2000
   10.1300   16.5490   19.3600 O   0  0  0  0  0  0  0  0  0  0  0  0
   10.4710   15.3860   19.5830 C   0  0  0  0  0  0  0  0  0  0  0  0
   10.7600   14.5370   18.6040 N   0  0  0  0  0  0  0  0  0  0  0  0
   10.6090   14.8700   21.0050 C   0  0  1  0  0  0  0  0  0  0  0  0
   11.7840   15.5360   21.7410 C   0  0  0  0  0  0  0  0  0  0  0  0
   11.9150   14.9800   23.1580 C   0  0  0  0  0  0  0  0  0  0  0  0
   10.5740   15.0480   23.9030 C   0  0  0  0  0  0  0  0  0  0  0  0
    9.3150   15.0030   21.8140 C   0  0  0  0  0  0  0  0  0  0  0  0
    9.4950   14.4030   23.1420 N   0  0  0  0  0  0  0  0  0  0  0  0
    8.6950   13.3640   23.5160 C   0  0  0  0  0  0  0  0  0  0  0  0
    7.7200   13.0480   22.8440 O   0  0  0  0  0  0  0  0  0  0  0  0
    9.0370   12.5340   24.7500 C   0  0  1  0  0  0  0  0  0  0  0  0
   10.3010   13.0010   25.4750 C   0  0  0  0  0  0  0  0  0  0  0  0
    7.8390   12.4220   25.6890 C   0  0  0  0  0  0  0  0  0  0  0  0
    7.3530   13.5520   26.3500 C   0  0  0  0  0  0  0  0  0  0  0  0
    8.0440   14.7090   26.1100 O   0  0  0  0  0  0  0  0  0  0  0  0
    7.5640   15.9110   26.7280 C   0  0  0  0  0  0  0  0  0  0  0  0
    7.2020   11.2080   25.9130 C   0  0  0  0  0  0  0  0  0  0  0  0
    6.0820   11.1300   26.7230 C   0  0  0  0  0  0  0  0  0  0  0  0
    5.6100   12.2510   27.3610 C   0  0  0  0  0  0  0  0  0  0  0  0
    6.2490   13.4690   27.1960 C   0  0  0  0  0  0  0  0  0  0  0  0
 17 16  1  0
 16 15  1  0
 15 21  2  0
 21 20  1  0
 20 19  2  0
 19 18  1  0
 18 14  2  0
 15 14  1  0
 14 12  1  0
 12 13  1  1
 12 10  1  0
 11 10  2  0
 10  9  1  0
  9  7  1  0
  7  6  1  0
  6  5  1  0
  5  4  1  0
  4  2  1  6
  3  2  1  0
  2  1  2  0
  8  4  1  0
  9  8  1  0
M  END
$$$$
