A71EV2A-x4368_A_201_1_A71EV2A-x0911+A+147+1__LIG
     RDKit          3D

 21 22  0  0  0  0  0  0  0  0999 V2000
   10.4050   16.6250   19.1440 O   0  0  0  0  0  0  0  0  0  0  0  0
   10.7790   15.4730   19.3810 C   0  0  0  0  0  0  0  0  0  0  0  0
   11.1770   14.6340   18.4350 N   0  0  0  0  0  0  0  0  0  0  0  0
   10.8060   14.9350   20.7990 C   0  0  1  0  0  0  0  0  0  0  0  0
   11.9790   15.5360   21.5920 C   0  0  0  0  0  0  0  0  0  0  0  0
   11.9890   15.0250   23.0320 C   0  0  0  0  0  0  0  0  0  0  0  0
   10.6520   15.2970   23.7010 C   0  0  0  0  0  0  0  0  0  0  0  0
    9.4880   15.2200   21.5300 C   0  0  0  0  0  0  0  0  0  0  0  0
    9.5480   14.7280   22.9100 N   0  0  0  0  0  0  0  0  0  0  0  0
    8.6460   13.8380   23.3820 C   0  0  0  0  0  0  0  0  0  0  0  0
    7.7610   13.3750   22.6790 O   0  0  0  0  0  0  0  0  0  0  0  0
    8.7630   13.4640   24.8500 C   0  0  0  0  0  0  0  0  0  0  0  0
    7.7230   12.4570   25.2860 C   0  0  0  0  0  0  0  0  0  0  0  0
    6.5700   12.9130   25.9230 C   0  0  0  0  0  0  0  0  0  0  0  0
    5.6390   12.0250   26.4290 C   0  0  0  0  0  0  0  0  0  0  0  0
    5.8350   10.6720   26.2930 C   0  0  0  0  0  0  0  0  0  0  0  0
    6.9650   10.1970   25.6500 C   0  0  0  0  0  0  0  0  0  0  0  0
    7.9220   11.0730   25.1450 C   0  0  0  0  0  0  0  0  0  0  0  0
    9.1600   10.5120   24.4970 C   0  0  0  0  0  0  0  0  0  0  0  0
    8.8830    9.2480   23.9390 O   0  0  0  0  0  0  0  0  0  0  0  0
   10.0620    8.6070   23.4940 C   0  0  0  0  0  0  0  0  0  0  0  0
 21 20  1  0
 20 19  1  0
 19 18  1  0
 18 17  1  0
 17 16  2  0
 16 15  1  0
 15 14  2  0
 14 13  1  0
 18 13  2  0
 13 12  1  0
 12 10  1  0
 11 10  2  0
 10  9  1  0
  9  7  1  0
  7  6  1  0
  6  5  1  0
  5  4  1  0
  4  2  1  6
  3  2  1  0
  2  1  2  0
  8  4  1  0
  9  8  1  0
M  END
$$$$
