A71EV2A-x4524_A_201_1_A71EV2A-x0911+A+147+1__LIG
     RDKit          3D

 21 22  0  0  0  0  0  0  0  0999 V2000
    7.7630   10.7930   25.2610 Cl  0  0  0  0  0  0  0  0  0  0  0  0
    6.7950   12.0640   25.9090 C   0  0  0  0  0  0  0  0  0  0  0  0
    5.8960   11.7920   26.9490 C   0  0  0  0  0  0  0  0  0  0  0  0
    5.9890   10.5400   27.4950 O   0  0  0  0  0  0  0  0  0  0  0  0
    4.8750   10.0520   28.2470 C   0  0  0  0  0  0  0  0  0  0  0  0
    6.8390   13.3370   25.3280 C   0  0  0  0  0  0  0  0  0  0  0  0
    5.9040   14.2940   25.7230 C   0  0  0  0  0  0  0  0  0  0  0  0
    5.0030   14.0110   26.7390 C   0  0  0  0  0  0  0  0  0  0  0  0
    5.0070   12.7760   27.3670 C   0  0  0  0  0  0  0  0  0  0  0  0
    7.9690   13.7120   24.5550 N   0  0  0  0  0  0  0  0  0  0  0  0
    8.1370   13.6830   23.1990 C   0  0  0  0  0  0  0  0  0  0  0  0
    7.3110   13.1850   22.4480 O   0  0  0  0  0  0  0  0  0  0  0  0
    9.3010   14.2220   22.7210 N   0  0  0  0  0  0  0  0  0  0  0  0
    9.1690   14.9310   21.4440 C   0  0  0  0  0  0  0  0  0  0  0  0
   10.4810   14.8370   20.6600 C   0  0  1  0  0  0  0  0  0  0  0  0
   10.4480   15.3560   19.2330 C   0  0  0  0  0  0  0  0  0  0  0  0
    9.8960   16.4230   18.9550 O   0  0  0  0  0  0  0  0  0  0  0  0
   11.0160   14.5770   18.3280 N   0  0  0  0  0  0  0  0  0  0  0  0
   11.5980   15.4850   21.4920 C   0  0  0  0  0  0  0  0  0  0  0  0
   11.7160   14.8280   22.8710 C   0  0  0  0  0  0  0  0  0  0  0  0
   10.3620   14.7770   23.5840 C   0  0  0  0  0  0  0  0  0  0  0  0
  5  4  1  0
  4  3  1  0
  3  9  2  0
  9  8  1  0
  8  7  2  0
  7  6  1  0
 10  6  1  0
 11 10  1  0
 12 11  2  0
 13 11  1  0
 13 21  1  0
 21 20  1  0
 20 19  1  0
 19 15  1  0
 15 16  1  6
 18 16  1  0
 17 16  2  0
 15 14  1  0
 14 13  1  0
  6  2  2  0
  3  2  1  0
  2  1  1  0
M  END
$$$$
