XX01ZVNS2B-x4120_B_203_1_XX01ZVNS2B-x4590+B+203+1__LIG
     RDKit          3D

 24 26  0  0  0  0  0  0  0  0999 V2000
  -10.5520    3.9490  -18.0960 Cl  0  0  0  0  0  0  0  0  0  0  0  0
   -9.0660    4.3700  -17.2860 C   0  0  0  0  0  0  0  0  0  0  0  0
   -9.0500    4.4760  -15.8980 C   0  0  0  0  0  0  0  0  0  0  0  0
   -7.9460    4.6090  -18.0520 C   0  0  0  0  0  0  0  0  0  0  0  0
   -6.7630    4.9780  -17.4330 C   0  0  0  0  0  0  0  0  0  0  0  0
   -6.7370    5.1180  -16.0310 C   0  0  0  0  0  0  0  0  0  0  0  0
   -5.4650    5.4910  -15.6620 N   0  0  0  0  0  0  0  0  0  0  0  0
   -4.6850    5.5810  -16.7850 C   0  0  0  0  0  0  0  0  0  0  0  0
   -5.4270    5.2690  -17.9040 C   0  0  0  0  0  0  0  0  0  0  0  0
   -4.9470    5.2080  -19.2960 C   0  0  0  0  0  0  0  0  0  0  0  0
   -3.6110    5.2030  -19.4080 N   0  0  0  0  0  0  0  0  0  0  0  0
   -5.6710    5.1110  -20.3510 N   0  0  0  0  0  0  0  0  0  0  0  0
   -7.8740    4.8650  -15.2360 C   0  0  0  0  0  0  0  0  0  0  0  0
   -7.8120    5.0660  -13.7420 C   0  0  0  0  0  0  0  0  0  0  0  0
   -6.9980    5.8620  -13.2740 O   0  0  0  0  0  0  0  0  0  0  0  0
   -8.6520    4.3280  -12.9600 N   0  0  0  0  0  0  0  0  0  0  0  0
   -8.7350    4.3570  -11.5270 C   0  0  0  0  0  0  0  0  0  0  0  0
   -8.5400    5.5540  -10.8430 C   0  0  0  0  0  0  0  0  0  0  0  0
   -8.5540    5.5730   -9.4590 C   0  0  0  0  0  0  0  0  0  0  0  0
   -8.9600    3.1910  -10.7970 C   0  0  0  0  0  0  0  0  0  0  0  0
   -8.9740    3.1990   -9.4030 C   0  0  0  0  0  0  0  0  0  0  0  0
   -9.2060    1.9110   -8.6500 C   0  0  0  0  0  0  0  0  0  0  0  0
   -8.7650    4.4140   -8.7140 C   0  0  0  0  0  0  0  0  0  0  0  0
   -8.7730    4.4690   -7.2050 C   0  0  0  0  0  0  0  0  0  0  0  0
 24 23  1  0
 23 19  1  0
 19 18  2  0
 18 17  1  0
 17 16  1  0
 16 14  1  0
 15 14  2  0
 14 13  1  0
 13  3  1  0
  3  2  2  0
  2  1  1  0
  4  2  1  0
  5  4  2  0
  5  9  1  0
 10  9  1  0
 12 10  2  0
 11 10  1  0
  9  8  2  0
  8  7  1  0
  7  6  1  0
 13  6  2  0
  6  5  1  0
 20 17  2  0
 21 20  1  0
 23 21  2  0
 22 21  1  0
M  END
$$$$
