A71EV2A-x4476_A_201_1_A71EV2A-x0911+A+147+1__LIG
     RDKit          3D

 21 23  0  0  0  0  0  0  0  0999 V2000
   10.2470   16.7230   18.9160 O   0  0  0  0  0  0  0  0  0  0  0  0
   10.5680   15.5890   19.2750 C   0  0  0  0  0  0  0  0  0  0  0  0
   10.9750   14.6490   18.4360 N   0  0  0  0  0  0  0  0  0  0  0  0
   10.5730   15.2300   20.7210 C   0  0  2  0  0  0  0  0  0  0  0  0
    9.3410   14.5250   21.3190 C   0  0  0  0  0  0  0  0  0  0  0  0
   10.7180   16.3810   21.7190 C   0  0  0  0  0  0  0  0  0  0  0  0
   10.7340   15.5030   22.9690 C   0  0  2  0  0  0  0  0  0  0  0  0
   11.8250   14.4620   22.6880 C   0  0  0  0  0  0  0  0  0  0  0  0
   11.7820   14.3440   21.1440 C   0  0  0  0  0  0  0  0  0  0  0  0
    9.5590   14.6370   22.7680 N   0  0  0  0  0  0  0  0  0  0  0  0
    8.7630   14.2260   23.7660 C   0  0  0  0  0  0  0  0  0  0  0  0
    9.0220   14.4720   24.9380 O   0  0  0  0  0  0  0  0  0  0  0  0
    7.5180   13.4610   23.3650 C   0  0  0  0  0  0  0  0  0  0  0  0
    7.1360   12.4380   24.4110 C   0  0  0  0  0  0  0  0  0  0  0  0
    7.6090   11.1290   24.3160 C   0  0  0  0  0  0  0  0  0  0  0  0
    8.5790   10.9390   23.3690 O   0  0  0  0  0  0  0  0  0  0  0  0
    9.5340    9.8990   23.5810 C   0  0  0  0  0  0  0  0  0  0  0  0
    6.2160   12.7340   25.4120 C   0  0  0  0  0  0  0  0  0  0  0  0
    5.7440   11.7460   26.2600 C   0  0  0  0  0  0  0  0  0  0  0  0
    6.1850   10.4500   26.1220 C   0  0  0  0  0  0  0  0  0  0  0  0
    7.1170   10.1300   25.1440 C   0  0  0  0  0  0  0  0  0  0  0  0
 17 16  1  0
 16 15  1  0
 15 21  2  0
 21 20  1  0
 20 19  2  0
 19 18  1  0
 18 14  2  0
 15 14  1  0
 14 13  1  0
 13 11  1  0
 12 11  2  0
 11 10  1  0
 10  5  1  0
  5  4  1  0
  4  2  1  6
  3  2  1  0
  2  1  2  0
  4  9  1  0
  9  8  1  0
  7  8  1  6
 10  7  1  0
  7  6  1  0
  6  4  1  0
M  END
$$$$
