XX01ZVNS2B-x3480_B_203_1_XX01ZVNS2B-x4590+B+203+1__LIG
     RDKit          3D

 22 24  0  0  0  0  0  0  0  0999 V2000
   -3.7550    5.9110  -19.0060 C   0  0  0  0  0  0  0  0  0  0  0  0
   -4.6580    5.5600  -17.8590 C   0  0  0  0  0  0  0  0  0  0  0  0
   -4.2270    5.4460  -16.7080 O   0  0  0  0  0  0  0  0  0  0  0  0
   -5.9570    5.3730  -18.2070 N   0  0  0  0  0  0  0  0  0  0  0  0
   -7.0360    4.9220  -17.4210 C   0  0  0  0  0  0  0  0  0  0  0  0
   -8.2400    4.4680  -17.9680 C   0  0  0  0  0  0  0  0  0  0  0  0
   -9.2250    4.0640  -17.0980 C   0  0  0  0  0  0  0  0  0  0  0  0
   -9.0050    4.1220  -15.7300 C   0  0  0  0  0  0  0  0  0  0  0  0
   -7.7990    4.6120  -15.2770 C   0  0  0  0  0  0  0  0  0  0  0  0
   -7.5060    4.7000  -13.7970 C   0  0  0  0  0  0  0  0  0  0  0  0
   -6.5930    5.4120  -13.3880 O   0  0  0  0  0  0  0  0  0  0  0  0
   -8.2840    3.9110  -13.0090 N   0  0  0  0  0  0  0  0  0  0  0  0
   -8.4290    3.9360  -11.5930 C   0  0  0  0  0  0  0  0  0  0  0  0
   -8.1990    5.1170  -10.8860 C   0  0  0  0  0  0  0  0  0  0  0  0
   -8.3440    5.1530   -9.5100 C   0  0  0  0  0  0  0  0  0  0  0  0
   -8.6490    3.9790   -8.8330 C   0  0  0  0  0  0  0  0  0  0  0  0
   -8.8760    2.8020   -9.5260 C   0  0  0  0  0  0  0  0  0  0  0  0
   -8.7520    2.7550  -10.9100 C   0  0  0  0  0  0  0  0  0  0  0  0
   -9.2370    1.7200   -8.5490 C   0  0  0  0  0  0  0  0  0  0  0  0
   -8.7240    2.2810   -7.2910 N   0  0  0  0  0  0  0  0  0  0  0  0
   -8.8720    3.7410   -7.3680 C   0  0  0  0  0  0  0  0  0  0  0  0
   -6.8230    5.0140  -16.1080 N   0  0  0  0  0  0  0  0  0  0  0  0
  1  2  1  0
  2  3  2  0
  2  4  1  0
  4  5  1  0
  5  6  2  0
  6  7  1  0
  7  8  2  0
  8  9  1  0
  9 10  1  0
 10 11  2  0
 10 12  1  0
 12 13  1  0
 13 14  2  0
 14 15  1  0
 15 16  2  0
 16 17  1  0
 17 18  2  0
 17 19  1  0
 19 20  1  0
 20 21  1  0
  9 22  2  0
  5 22  1  0
 13 18  1  0
 16 21  1  0
M  END
$$$$
