A71EV2A-x3897_A_201_1_A71EV2A-x0911+A+147+1__LIG
     RDKit          3D

 20 21  0  0  0  0  0  0  0  0999 V2000
   10.1860   16.9570   19.1200 O   0  0  0  0  0  0  0  0  0  0  0  0
   10.5480   15.8800   19.5930 C   0  0  0  0  0  0  0  0  0  0  0  0
   10.9020   14.8490   18.8220 N   0  0  0  0  0  0  0  0  0  0  0  0
   10.6250   15.6840   21.0980 C   0  0  2  0  0  0  0  0  0  0  0  0
   12.0650   15.7140   21.5970 C   0  0  0  0  0  0  0  0  0  0  0  0
   12.0980   15.5720   23.1160 C   0  0  0  0  0  0  0  0  0  0  0  0
   11.3990   14.2900   23.5770 C   0  0  0  0  0  0  0  0  0  0  0  0
    9.9330   14.3960   21.5360 C   0  0  0  0  0  0  0  0  0  0  0  0
   10.0630   14.1330   22.9750 N   0  0  0  0  0  0  0  0  0  0  0  0
    9.0100   13.4950   23.5360 C   0  0  0  0  0  0  0  0  0  0  0  0
    7.9680   13.2540   22.9230 O   0  0  0  0  0  0  0  0  0  0  0  0
    9.2450   12.9400   24.9250 C   0  0  0  0  0  0  0  0  0  0  0  0
    8.1730   11.9320   25.2720 C   0  0  0  0  0  0  0  0  0  0  0  0
    8.1880   10.6310   24.7550 C   0  0  0  0  0  0  0  0  0  0  0  0
    9.1170   10.4050   23.7760 O   0  0  0  0  0  0  0  0  0  0  0  0
    9.4200    9.0500   23.4100 C   0  0  0  0  0  0  0  0  0  0  0  0
    7.1440   12.2310   26.1340 C   0  0  0  0  0  0  0  0  0  0  0  0
    6.2080   11.3690   26.5350 N   0  0  0  0  0  0  0  0  0  0  0  0
    6.2840   10.1250   26.0670 C   0  0  0  0  0  0  0  0  0  0  0  0
    7.2460    9.7030   25.1630 C   0  0  0  0  0  0  0  0  0  0  0  0
 16 15  1  0
 15 14  1  0
 14 20  2  0
 20 19  1  0
 19 18  2  0
 18 17  1  0
 17 13  2  0
 14 13  1  0
 13 12  1  0
 12 10  1  0
 11 10  2  0
 10  9  1  0
  9  7  1  0
  7  6  1  0
  6  5  1  0
  5  4  1  0
  4  2  1  6
  3  2  1  0
  2  1  2  0
  8  4  1  0
  9  8  1  0
M  END
$$$$
