A71EV2A-x3606_A_201_1_A71EV2A-x0911+A+147+1__LIG
     RDKit          3D

 26 28  0  0  0  0  0  0  0  0999 V2000
   10.2370   16.5540   19.2680 O   0  0  0  0  0  0  0  0  0  0  0  0
   10.6410   15.4080   19.4940 C   0  0  0  0  0  0  0  0  0  0  0  0
   10.9780   14.5610   18.5350 N   0  0  0  0  0  0  0  0  0  0  0  0
   10.7100   14.8630   20.9080 C   0  0  1  0  0  0  0  0  0  0  0  0
   11.8330   15.5120   21.7380 C   0  0  0  0  0  0  0  0  0  0  0  0
   11.8470   14.9470   23.1610 C   0  0  0  0  0  0  0  0  0  0  0  0
   10.4720   15.0760   23.8090 C   0  0  0  0  0  0  0  0  0  0  0  0
    9.3650   15.1030   21.6030 C   0  0  0  0  0  0  0  0  0  0  0  0
    9.4200   14.5190   22.9430 N   0  0  0  0  0  0  0  0  0  0  0  0
    8.6040   13.4980   23.2780 C   0  0  0  0  0  0  0  0  0  0  0  0
    7.6720   13.1490   22.5710 O   0  0  0  0  0  0  0  0  0  0  0  0
    8.8800   12.8630   24.6220 C   0  0  0  0  0  0  0  0  0  0  0  0
    8.0330   11.6720   24.8880 C   0  0  0  0  0  0  0  0  0  0  0  0
    8.3630   10.4070   24.4820 N   0  0  0  0  0  0  0  0  0  0  0  0
    9.5380    9.9750   23.7330 C   0  0  0  0  0  0  0  0  0  0  0  0
    6.8750   11.5630   25.6200 C   0  0  0  0  0  0  0  0  0  0  0  0
    6.5640   10.1960   25.5910 C   0  0  0  0  0  0  0  0  0  0  0  0
    7.4540    9.4910   24.9100 N   0  0  0  0  0  0  0  0  0  0  0  0
    6.1650   12.6360   26.3700 C   0  0  0  0  0  0  0  0  0  0  0  0
    5.1780   12.2980   27.2900 C   0  0  0  0  0  0  0  0  0  0  0  0
    4.6730   13.2720   28.1290 C   0  0  0  0  0  0  0  0  0  0  0  0
    3.5270   12.8120   29.3600 Cl  0  0  0  0  0  0  0  0  0  0  0  0
    5.0970   14.5860   28.0660 C   0  0  0  0  0  0  0  0  0  0  0  0
    6.0620   14.9070   27.1310 C   0  0  0  0  0  0  0  0  0  0  0  0
    6.6100   16.5630   27.0140 Cl  0  0  0  0  0  0  0  0  0  0  0  0
    6.5910   13.9600   26.2760 C   0  0  0  0  0  0  0  0  0  0  0  0
 15 14  1  0
 14 18  1  0
 18 17  2  0
 17 16  1  0
 19 16  1  0
 19 26  2  0
 26 24  1  0
 25 24  1  0
 24 23  2  0
 23 21  1  0
 22 21  1  0
 21 20  2  0
 20 19  1  0
 16 13  2  0
 14 13  1  0
 13 12  1  0
 12 10  1  0
 11 10  2  0
 10  9  1  0
  9  7  1  0
  7  6  1  0
  6  5  1  0
  5  4  1  0
  4  2  1  6
  3  2  1  0
  2  1  2  0
  8  4  1  0
  9  8  1  0
M  END
$$$$
