XX01ZVNS2B-x1495_B_301_1_XX01ZVNS2B-x4590+B+203+1__LIG
     RDKit          3D

 20 22  0  0  0  0  0  0  0  0999 V2000
   -8.7360    1.7990   -7.8470 C   0  0  0  0  0  0  0  0  0  0  0  0
   -8.5750    2.8670   -8.8760 C   0  0  0  0  0  0  0  0  0  0  0  0
   -8.4390    4.2190   -8.7550 C   0  0  0  0  0  0  0  0  0  0  0  0
   -8.3250    4.7330  -10.0350 N   0  0  0  0  0  0  0  0  0  0  0  0
   -8.1650    6.0220  -10.4880 C   0  0  0  0  0  0  0  0  0  0  0  0
   -8.0770    6.2510  -11.8030 C   0  0  0  0  0  0  0  0  0  0  0  0
   -8.1440    5.1920  -12.7210 C   0  0  0  0  0  0  0  0  0  0  0  0
   -8.0480    5.4500  -14.1960 C   0  0  0  0  0  0  0  0  0  0  0  0
   -8.6860    6.3600  -14.7110 O   0  0  0  0  0  0  0  0  0  0  0  0
   -7.2500    4.6200  -14.9030 N   0  0  0  0  0  0  0  0  0  0  0  0
   -6.8810    4.7370  -16.2740 C   0  0  0  0  0  0  0  0  0  0  0  0
   -5.6480    5.2480  -16.6520 C   0  0  0  0  0  0  0  0  0  0  0  0
   -5.3570    5.3350  -17.9900 C   0  0  0  0  0  0  0  0  0  0  0  0
   -6.1890    4.9450  -18.9610 N   0  0  0  0  0  0  0  0  0  0  0  0
   -7.3820    4.4500  -18.5970 C   0  0  0  0  0  0  0  0  0  0  0  0
   -7.7700    4.3230  -17.2700 C   0  0  0  0  0  0  0  0  0  0  0  0
   -9.1210    3.7540  -16.9350 C   0  0  0  0  0  0  0  0  0  0  0  0
   -8.3050    3.8900  -12.2830 C   0  0  0  0  0  0  0  0  0  0  0  0
   -8.3900    3.6500  -10.9020 C   0  0  0  0  0  0  0  0  0  0  0  0
   -8.5470    2.5150  -10.2150 N   0  0  0  0  0  0  0  0  0  0  0  0
  1  2  1  0
  2  3  2  0
  3  4  1  0
  4  5  1  0
  5  6  2  0
  6  7  1  0
  7  8  1  0
  8  9  2  0
  8 10  1  0
 10 11  1  0
 11 12  2  0
 12 13  1  0
 13 14  2  0
 14 15  1  0
 15 16  2  0
 16 17  1  0
  7 18  2  0
 18 19  1  0
 19 20  2  0
  2 20  1  0
  4 19  1  0
 11 16  1  0
M  END
$$$$
