A71EV2A-x3191_A_201_1_A71EV2A-x0911+A+147+1__LIG
     RDKit          3D

 21 23  0  0  0  0  0  0  0  0999 V2000
    7.8510   13.4760   22.5870 O   0  0  0  0  0  0  0  0  0  0  0  0
    8.6660   13.9930   23.3360 C   0  0  0  0  0  0  0  0  0  0  0  0
    9.5300   14.9410   22.9040 N   0  0  0  0  0  0  0  0  0  0  0  0
   10.5240   15.6350   23.7390 C   0  0  0  0  0  0  0  0  0  0  0  0
   11.9130   15.5240   23.1370 C   0  0  0  0  0  0  0  0  0  0  0  0
   11.9150   15.9340   21.6620 C   0  0  0  0  0  0  0  0  0  0  0  0
    9.4840   15.4130   21.5180 C   0  0  0  0  0  0  0  0  0  0  0  0
   10.8400   15.1950   20.8480 C   0  0  1  0  0  0  0  0  0  0  0  0
   10.7980   15.6860   19.4110 C   0  0  0  0  0  0  0  0  0  0  0  0
   10.5230   16.8650   19.1420 O   0  0  0  0  0  0  0  0  0  0  0  0
   11.0960   14.7880   18.4900 N   0  0  0  0  0  0  0  0  0  0  0  0
    8.7110   13.6410   24.8140 C   0  0  0  0  0  0  0  0  0  0  0  0
    8.1240   12.2750   25.0900 C   0  0  0  0  0  0  0  0  0  0  0  0
    8.5910   11.1240   24.4210 C   0  0  0  0  0  0  0  0  0  0  0  0
    9.6320   10.8080   23.4760 C   0  0  0  0  0  0  0  0  0  0  0  0
    9.5700    9.4940   23.2720 C   0  0  0  0  0  0  0  0  0  0  0  0
    8.5600    8.8990   24.0000 O   0  0  0  0  0  0  0  0  0  0  0  0
    7.9690    9.9160   24.7070 C   0  0  0  0  0  0  0  0  0  0  0  0
    6.9190    9.7750   25.5970 C   0  0  0  0  0  0  0  0  0  0  0  0
    6.4880   10.9070   26.2630 C   0  0  0  0  0  0  0  0  0  0  0  0
    7.0900   12.1340   26.0240 C   0  0  0  0  0  0  0  0  0  0  0  0
 11  9  1  0
 10  9  2  0
  8  9  1  6
  8  6  1  0
  6  5  1  0
  5  4  1  0
  4  3  1  0
  3  2  1  0
  2  1  2  0
 12  2  1  0
 13 12  1  0
 13 21  1  0
 21 20  2  0
 20 19  1  0
 19 18  2  0
 18 17  1  0
 17 16  1  0
 16 15  2  0
 15 14  1  0
 14 13  2  0
 18 14  1  0
  7  3  1  0
  8  7  1  0
M  END
$$$$
