A71EV2A-x5052_A_201_2_A71EV2A-x0911+A+147+1__LIG
     RDKit          3D

 20 22  0  0  0  0  0  0  0  0999 V2000
   10.5270   13.8950   24.7670 O   0  0  0  0  0  0  0  0  0  0  0  0
   10.5110   14.1410   23.5690 C   0  0  0  0  0  0  0  0  0  0  0  0
   11.8050   14.4810   22.8720 C   0  0  0  0  0  0  0  0  0  0  0  0
   11.7310   14.6690   21.3560 C   0  0  0  0  0  0  0  0  0  0  0  0
    9.3600   14.1070   22.8360 N   0  0  0  0  0  0  0  0  0  0  0  0
    9.2040   14.5890   21.4520 C   0  0  0  0  0  0  0  0  0  0  0  0
   10.4250   15.3490   20.9120 C   0  0  2  0  0  0  0  0  0  0  0  0
   10.3560   15.4980   19.4010 C   0  0  0  0  0  0  0  0  0  0  0  0
    9.7850   16.4640   18.8830 O   0  0  0  0  0  0  0  0  0  0  0  0
   10.9410   14.5480   18.6770 N   0  0  0  0  0  0  0  0  0  0  0  0
    8.1560   13.5100   23.4350 C   0  0  1  0  0  0  0  0  0  0  0  0
    8.3390   12.0650   23.8580 C   0  0  0  0  0  0  0  0  0  0  0  0
    9.3140   11.2880   23.2320 C   0  0  0  0  0  0  0  0  0  0  0  0
    9.3520    9.9170   23.4140 C   0  0  0  0  0  0  0  0  0  0  0  0
    8.4160    9.3060   24.2170 C   0  0  0  0  0  0  0  0  0  0  0  0
    7.4890   10.0710   24.9070 C   0  0  0  0  0  0  0  0  0  0  0  0
    7.4460   11.4540   24.7520 C   0  0  0  0  0  0  0  0  0  0  0  0
    6.4890   12.2690   25.5890 C   0  0  0  0  0  0  0  0  0  0  0  0
    6.2370   13.6800   25.0410 C   0  0  0  0  0  0  0  0  0  0  0  0
    7.5470   14.3220   24.5810 C   0  0  0  0  0  0  0  0  0  0  0  0
 10  8  1  0
  9  8  2  0
  7  8  1  6
  7  4  1  0
  4  3  1  0
  3  2  1  0
  2  1  2  0
  5  2  1  0
 11  5  1  1
 11 20  1  0
 20 19  1  0
 19 18  1  0
 18 17  1  0
 17 16  1  0
 16 15  2  0
 15 14  1  0
 14 13  2  0
 13 12  1  0
 17 12  2  0
 12 11  1  0
  6  5  1  0
  7  6  1  0
M  END
$$$$
