XX01ZVNS2B-x4227_B_203_2_XX01ZVNS2B-x4590+B+203+1__LIG
     RDKit          3D

 28 32  0  0  0  0  0  0  0  0999 V2000
   -6.2600    4.0990  -20.8530 O   0  0  0  0  0  0  0  0  0  0  0  0
   -6.6640    4.2340  -19.7050 C   0  0  0  0  0  0  0  0  0  0  0  0
   -7.9460    4.0900  -19.2900 N   0  0  0  0  0  0  0  0  0  0  0  0
   -8.0710    4.2470  -17.9080 C   0  0  0  0  0  0  0  0  0  0  0  0
   -9.1930    4.1050  -17.0990 C   0  0  0  0  0  0  0  0  0  0  0  0
   -9.0530    4.2440  -15.7280 C   0  0  0  0  0  0  0  0  0  0  0  0
   -5.8130    4.5650  -18.4810 C   0  0  1  0  0  0  0  0  0  0  0  0
   -4.9650    5.8330  -18.7380 C   0  0  0  0  0  0  0  0  0  0  0  0
   -3.8560    6.0360  -17.7020 C   0  0  0  0  0  0  0  0  0  0  0  0
   -2.9890    7.2330  -18.0710 C   0  0  0  0  0  0  0  0  0  0  0  0
   -3.8170    8.4670  -18.2570 N   0  0  0  0  0  0  0  0  0  0  0  0
   -4.9330    8.2810  -19.2430 C   0  0  0  0  0  0  0  0  0  0  0  0
   -5.8120    7.1030  -18.8450 C   0  0  0  0  0  0  0  0  0  0  0  0
   -6.8200    4.5320  -17.3610 C   0  0  0  0  0  0  0  0  0  0  0  0
   -6.7000    4.6620  -15.9810 C   0  0  0  0  0  0  0  0  0  0  0  0
   -7.8130    4.5180  -15.1600 C   0  0  0  0  0  0  0  0  0  0  0  0
   -7.6300    4.6770  -13.6850 C   0  0  0  0  0  0  0  0  0  0  0  0
   -6.6810    5.3190  -13.2380 O   0  0  0  0  0  0  0  0  0  0  0  0
   -8.5570    4.0700  -12.9030 N   0  0  0  0  0  0  0  0  0  0  0  0
   -8.6130    4.0710  -11.4810 C   0  0  0  0  0  0  0  0  0  0  0  0
   -8.8960    2.8950  -10.7850 C   0  0  0  0  0  0  0  0  0  0  0  0
   -8.9330    2.8980   -9.3920 C   0  0  0  0  0  0  0  0  0  0  0  0
   -9.2180    1.7720   -8.4430 C   0  0  0  0  0  0  0  0  0  0  0  0
   -8.7920    2.3510   -7.1720 N   0  0  0  0  0  0  0  0  0  0  0  0
   -8.7460    3.8240   -7.2120 C   0  0  0  0  0  0  0  0  0  0  0  0
   -8.6850    4.0720   -8.6900 C   0  0  0  0  0  0  0  0  0  0  0  0
   -8.4040    5.2430   -9.3860 C   0  0  0  0  0  0  0  0  0  0  0  0
   -8.3660    5.2440  -10.7710 C   0  0  0  0  0  0  0  0  0  0  0  0
 18 17  2  0
 19 17  1  0
 20 19  1  0
 20 28  2  0
 28 27  1  0
 27 26  2  0
 26 22  1  0
 22 21  2  0
 21 20  1  0
 23 22  1  0
 24 23  1  0
 25 24  1  0
 26 25  1  0
 17 16  1  0
 16  6  1  0
  6  5  2  0
  5  4  1  0
  4 14  2  0
 15 14  1  0
 16 15  2  0
 14  7  1  0
  7  8  1  6
  8 13  1  0
 13 12  1  0
 12 11  1  0
 11 10  1  0
 10  9  1  0
  9  8  1  0
  7  2  1  0
  2  1  2  0
  3  2  1  0
  4  3  1  0
M  END
$$$$
