A71EV2A-x4798_A_201_1_A71EV2A-x0911+A+147+1__LIG
     RDKit          3D

 22 24  0  0  0  0  0  0  0  0999 V2000
    9.3480   14.2770   25.9070 O   0  0  0  0  0  0  0  0  0  0  0  0
    9.1180   14.1630   24.7050 C   0  0  0  0  0  0  0  0  0  0  0  0
    7.7760   13.6440   24.2120 C   0  0  0  0  0  0  0  0  0  0  0  0
    7.3230   12.4120   24.9650 C   0  0  0  0  0  0  0  0  0  0  0  0
    6.3480   12.5400   25.9540 C   0  0  0  0  0  0  0  0  0  0  0  0
    5.9360   11.4530   26.7030 C   0  0  0  0  0  0  0  0  0  0  0  0
    6.4700   10.2120   26.4630 C   0  0  0  0  0  0  0  0  0  0  0  0
    7.4200   10.0420   25.4680 C   0  0  0  0  0  0  0  0  0  0  0  0
    7.8630   11.1390   24.7290 C   0  0  0  0  0  0  0  0  0  0  0  0
    9.1460   11.0120   23.5190 S   0  0  0  0  0  0  0  0  0  0  0  0
    9.4300    9.2530   23.3570 C   0  0  0  0  0  0  0  0  0  0  0  0
   10.0300   14.4840   23.7560 N   0  0  0  0  0  0  0  0  0  0  0  0
    9.7430   14.5030   22.3210 C   0  0  0  0  0  0  0  0  0  0  0  0
   11.1000   14.5080   21.6580 C   0  0  2  0  0  0  0  0  0  0  0  0
   11.6260   13.1800   21.5780 O   0  0  0  0  0  0  0  0  0  0  0  0
   11.9380   15.3260   22.6470 C   0  0  0  0  0  0  0  0  0  0  0  0
   11.4240   14.8840   24.0180 C   0  0  0  0  0  0  0  0  0  0  0  0
   10.9630   15.0680   20.2420 C   0  0  0  0  0  0  0  0  0  0  0  0
   11.6930   14.6460   19.1640 N   0  0  0  0  0  0  0  0  0  0  0  0
   11.2440   15.2500   18.0810 N   0  0  0  0  0  0  0  0  0  0  0  0
   10.2470   16.0560   18.4740 N   0  0  0  0  0  0  0  0  0  0  0  0
   10.0480   15.9790   19.7940 C   0  0  0  0  0  0  0  0  0  0  0  0
 11 10  1  0
 10  9  1  0
  9  8  1  0
  8  7  2  0
  7  6  1  0
  6  5  2  0
  5  4  1  0
  9  4  2  0
  4  3  1  0
  3  2  1  0
  2  1  2  0
 12  2  1  0
 12 17  1  0
 17 16  1  0
 16 14  1  0
 14 15  1  6
 18 14  1  0
 18 22  2  0
 22 21  1  0
 21 20  1  0
 20 19  2  0
 19 18  1  0
 14 13  1  0
 13 12  1  0
M  END
$$$$
