XX01ZVNS2B-x4857_B_203_6_XX01ZVNS2B-x4590+B+203+1__LIG
     RDKit          3D

 27 31  0  0  0  0  0  0  0  0999 V2000
  -10.4560    3.9580  -18.1690 Cl  0  0  0  0  0  0  0  0  0  0  0  0
   -8.9400    4.3040  -17.3880 C   0  0  0  0  0  0  0  0  0  0  0  0
   -8.9020    4.3960  -16.0030 C   0  0  0  0  0  0  0  0  0  0  0  0
   -7.8340    4.5530  -18.1770 C   0  0  0  0  0  0  0  0  0  0  0  0
   -6.6700    4.9410  -17.5310 C   0  0  0  0  0  0  0  0  0  0  0  0
   -5.4390    5.2520  -18.0280 N   0  0  0  0  0  0  0  0  0  0  0  0
   -5.0040    5.2550  -19.4260 C   0  0  0  0  0  0  0  0  0  0  0  0
   -4.9360    6.6100  -20.1530 C   0  0  0  0  0  0  0  0  0  0  0  0
   -3.6530    6.1560  -20.7450 N   0  0  0  0  0  0  0  0  0  0  0  0
   -3.4920    5.1160  -19.7030 C   0  0  0  0  0  0  0  0  0  0  0  0
   -4.5660    5.5840  -17.0280 N   0  0  0  0  0  0  0  0  0  0  0  0
   -5.2450    5.4870  -15.9020 C   0  0  0  0  0  0  0  0  0  0  0  0
   -6.5870    5.0870  -16.1380 C   0  0  0  0  0  0  0  0  0  0  0  0
   -7.7290    4.8130  -15.3680 C   0  0  0  0  0  0  0  0  0  0  0  0
   -7.6870    5.0580  -13.8890 C   0  0  0  0  0  0  0  0  0  0  0  0
   -6.8990    5.8740  -13.4230 O   0  0  0  0  0  0  0  0  0  0  0  0
   -8.5050    4.3100  -13.1190 N   0  0  0  0  0  0  0  0  0  0  0  0
   -8.5650    4.3430  -11.7010 C   0  0  0  0  0  0  0  0  0  0  0  0
   -8.4870    5.5600  -11.0220 C   0  0  0  0  0  0  0  0  0  0  0  0
   -8.5100    5.5870   -9.6360 C   0  0  0  0  0  0  0  0  0  0  0  0
   -8.6770    3.1590  -10.9760 C   0  0  0  0  0  0  0  0  0  0  0  0
   -8.7150    3.1930   -9.5850 C   0  0  0  0  0  0  0  0  0  0  0  0
   -8.6200    4.4040   -8.9160 C   0  0  0  0  0  0  0  0  0  0  0  0
   -8.6490    4.1680   -7.4330 C   0  0  0  0  0  0  0  0  0  0  0  0
   -8.9270    2.0840   -8.5970 C   0  0  0  0  0  0  0  0  0  0  0  0
   -8.5250    2.7000   -7.3180 N   0  0  0  0  0  0  0  0  0  0  0  0
   -9.2380    2.1620   -6.1770 C   0  0  0  0  0  0  0  0  0  0  0  0
 27 26  1  0
 26 24  1  0
 24 23  1  0
 23 20  1  0
 20 19  2  0
 19 18  1  0
 18 17  1  0
 17 15  1  0
 16 15  2  0
 15 14  1  0
 14  3  1  0
  3  2  2  0
  2  1  1  0
  4  2  1  0
  5  4  2  0
  5 13  1  0
 14 13  2  0
 13 12  1  0
 12 11  2  0
 11  6  1  0
  6  5  1  0
  7  6  1  0
  7 10  1  0
 10  9  1  0
  9  8  1  0
  8  7  1  0
 21 18  2  0
 22 21  1  0
 23 22  2  0
 25 22  1  0
 26 25  1  0
M  END
$$$$
