XX01ZVNS2B-x3842_B_203_1_XX01ZVNS2B-x4590+B+203+1__LIG
     RDKit          3D

 29 31  0  0  0  0  0  0  0  0999 V2000
   -5.2640    7.4220  -16.6220 F   0  0  0  0  0  0  0  0  0  0  0  0
   -5.3400    6.1370  -16.9980 C   0  0  0  0  0  0  0  0  0  0  0  0
   -5.1420    6.0760  -18.3050 F   0  0  0  0  0  0  0  0  0  0  0  0
   -4.2780    5.5550  -16.4710 F   0  0  0  0  0  0  0  0  0  0  0  0
   -6.6140    5.4770  -16.5810 C   0  0  0  0  0  0  0  0  0  0  0  0
   -7.5750    5.1360  -17.5270 C   0  0  0  0  0  0  0  0  0  0  0  0
   -8.7280    4.4500  -17.1700 C   0  0  0  0  0  0  0  0  0  0  0  0
   -9.8040    4.1600  -18.1880 C   0  0  0  0  0  0  0  0  0  0  0  0
   -6.8070    5.1130  -15.2560 C   0  0  0  0  0  0  0  0  0  0  0  0
   -7.9230    4.3780  -14.8800 C   0  0  0  0  0  0  0  0  0  0  0  0
   -8.8810    4.0720  -15.8410 C   0  0  0  0  0  0  0  0  0  0  0  0
   -8.0110    3.7920  -13.4770 C   0  0  1  0  0  0  0  0  0  0  0  0
   -6.8470    2.7570  -13.2840 C   0  0  0  0  0  0  0  0  0  0  0  0
   -5.7660    3.2290  -12.6620 N   0  0  0  0  0  0  0  0  0  0  0  0
   -4.5510    2.4460  -12.4850 C   0  0  0  0  0  0  0  0  0  0  0  0
   -3.4830    2.8140  -13.5840 C   0  0  0  0  0  0  0  0  0  0  0  0
   -3.3610    1.7440  -14.4130 F   0  0  0  0  0  0  0  0  0  0  0  0
   -3.9170    3.8340  -14.3680 F   0  0  0  0  0  0  0  0  0  0  0  0
   -6.9540    1.5940  -13.6580 O   0  0  0  0  0  0  0  0  0  0  0  0
   -8.0070    4.8410  -12.4780 N   0  0  0  0  0  0  0  0  0  0  0  0
   -8.1790    4.6180  -11.1130 C   0  0  0  0  0  0  0  0  0  0  0  0
   -8.5480    3.3740  -10.6040 C   0  0  0  0  0  0  0  0  0  0  0  0
   -8.7220    3.2010   -9.2370 C   0  0  0  0  0  0  0  0  0  0  0  0
   -9.1510    1.9820   -8.4780 C   0  0  0  0  0  0  0  0  0  0  0  0
   -9.0170    2.4230   -7.0890 N   0  0  0  0  0  0  0  0  0  0  0  0
   -8.7620    3.8510   -6.9500 C   0  0  0  0  0  0  0  0  0  0  0  0
   -8.5220    4.2670   -8.3710 C   0  0  0  0  0  0  0  0  0  0  0  0
   -8.1560    5.5080   -8.8810 C   0  0  0  0  0  0  0  0  0  0  0  0
   -7.9840    5.6830  -10.2400 C   0  0  0  0  0  0  0  0  0  0  0  0
  8  7  1  0
  7 11  1  0
 11 10  2  0
 12 10  1  0
 12 20  1  1
 21 20  1  0
 21 29  2  0
 29 28  1  0
 28 27  2  0
 27 23  1  0
 23 22  2  0
 22 21  1  0
 24 23  1  0
 25 24  1  0
 26 25  1  0
 27 26  1  0
 13 12  1  0
 19 13  2  0
 14 13  1  0
 15 14  1  0
 16 15  1  0
 18 16  1  0
 17 16  1  0
 10  9  1  0
  9  5  2  0
  5  2  1  0
  3  2  1  0
  4  2  1  0
  2  1  1  0
  6  5  1  0
  7  6  2  0
M  END
$$$$
