XX01ZVNS2B-x3489_B_203_1_XX01ZVNS2B-x4590+B+203+1__LIG
     RDKit          3D

 30 34  0  0  0  0  0  0  0  0999 V2000
   -6.8070    2.0540  -13.5830 O   0  0  0  0  0  0  0  0  0  0  0  0
   -6.5800    3.1800  -13.1450 C   0  0  0  0  0  0  0  0  0  0  0  0
   -5.7260    3.4370  -12.1500 N   0  0  0  0  0  0  0  0  0  0  0  0
   -4.4130    2.8440  -11.9060 C   0  0  0  0  0  0  0  0  0  0  0  0
   -4.3620    2.0860  -10.5890 C   0  0  0  0  0  0  0  0  0  0  0  0
   -2.9720    1.5450  -10.3350 C   0  0  0  0  0  0  0  0  0  0  0  0
   -2.0740    1.8580  -11.3990 O   0  0  0  0  0  0  0  0  0  0  0  0
   -2.5400    1.3880  -12.6680 C   0  0  0  0  0  0  0  0  0  0  0  0
   -3.8290    2.0700  -13.0770 C   0  0  0  0  0  0  0  0  0  0  0  0
   -7.4220    4.4010  -13.5660 C   0  0  2  0  0  0  0  0  0  0  0  0
   -8.6410    4.3410  -12.7940 N   0  0  0  0  0  0  0  0  0  0  0  0
   -8.6070    4.2910  -11.4000 C   0  0  0  0  0  0  0  0  0  0  0  0
   -8.1580    5.4050  -10.6750 C   0  0  0  0  0  0  0  0  0  0  0  0
   -8.1490    5.3800   -9.2900 C   0  0  0  0  0  0  0  0  0  0  0  0
   -8.4820    4.2010   -8.6310 C   0  0  0  0  0  0  0  0  0  0  0  0
   -8.8680    3.0730   -9.3440 C   0  0  0  0  0  0  0  0  0  0  0  0
   -8.9350    3.1010  -10.7320 C   0  0  0  0  0  0  0  0  0  0  0  0
   -9.2120    1.9670   -8.3850 C   0  0  0  0  0  0  0  0  0  0  0  0
   -8.5840    2.4360   -7.1400 N   0  0  0  0  0  0  0  0  0  0  0  0
   -8.5550    3.9090   -7.1580 C   0  0  0  0  0  0  0  0  0  0  0  0
   -7.5530    4.4840  -15.0880 C   0  0  0  0  0  0  0  0  0  0  0  0
   -8.7550    4.2850  -15.7710 C   0  0  0  0  0  0  0  0  0  0  0  0
   -8.8080    4.3850  -17.1730 C   0  0  0  0  0  0  0  0  0  0  0  0
  -10.3060    4.1120  -18.0260 Cl  0  0  0  0  0  0  0  0  0  0  0  0
   -7.6920    4.6460  -17.9410 C   0  0  0  0  0  0  0  0  0  0  0  0
   -6.4930    4.8350  -17.2620 C   0  0  0  0  0  0  0  0  0  0  0  0
   -5.2380    5.0250  -17.7340 N   0  0  0  0  0  0  0  0  0  0  0  0
   -4.3360    5.0890  -16.7130 N   0  0  0  0  0  0  0  0  0  0  0  0
   -5.0230    4.9520  -15.5910 C   0  0  0  0  0  0  0  0  0  0  0  0
   -6.4010    4.7670  -15.8610 C   0  0  0  0  0  0  0  0  0  0  0  0
  1  2  2  0
  2  3  1  0
  3  4  1  0
  4  5  1  0
  5  6  1  0
  6  7  1  0
  7  8  1  0
  8  9  1  0
  2 10  1  0
 10 11  1  1
 11 12  1  0
 12 13  2  0
 13 14  1  0
 14 15  2  0
 15 16  1  0
 16 17  2  0
 16 18  1  0
 18 19  1  0
 19 20  1  0
 10 21  1  0
 21 22  2  0
 22 23  1  0
 23 24  1  0
 23 25  2  0
 25 26  1  0
 26 27  1  0
 27 28  1  0
 28 29  2  0
 29 30  1  0
  4  9  1  0
 12 17  1  0
 21 30  1  0
 15 20  1  0
 26 30  2  0
M  END
$$$$
