A71EV2A-x5389_A_201_5_A71EV2A-x0911+A+147+1__LIG
     RDKit          3D

 23 25  0  0  0  0  0  0  0  0999 V2000
   10.2990   16.6110   19.2070 O   0  0  0  0  0  0  0  0  0  0  0  0
   10.6550   15.4550   19.4500 C   0  0  0  0  0  0  0  0  0  0  0  0
   11.1600   14.6500   18.5240 N   0  0  0  0  0  0  0  0  0  0  0  0
   10.5440   14.8780   20.8520 C   0  0  1  0  0  0  0  0  0  0  0  0
   11.7540   15.2720   21.7120 C   0  0  0  0  0  0  0  0  0  0  0  0
   11.6800   14.6210   23.0970 C   0  0  0  0  0  0  0  0  0  0  0  0
   10.3630   14.9340   23.7840 C   0  0  0  0  0  0  0  0  0  0  0  0
    9.2740   15.3090   21.6030 C   0  0  0  0  0  0  0  0  0  0  0  0
    9.2060   14.6530   22.9180 N   0  0  0  0  0  0  0  0  0  0  0  0
    8.1330   13.8400   23.1740 C   0  0  0  0  0  0  0  0  0  0  0  0
    7.4130   13.4070   22.2930 O   0  0  0  0  0  0  0  0  0  0  0  0
    7.8050   13.6270   24.5170 N   0  0  0  0  0  0  0  0  0  0  0  0
    7.3340   12.3750   24.9700 C   0  0  0  0  0  0  0  0  0  0  0  0
    7.9320   11.1880   24.5260 C   0  0  0  0  0  0  0  0  0  0  0  0
    9.0190   11.3380   23.7060 O   0  0  0  0  0  0  0  0  0  0  0  0
    9.5990   10.1560   23.1450 C   0  0  0  0  0  0  0  0  0  0  0  0
    7.6830   14.7690   25.4390 C   0  0  0  0  0  0  0  0  0  0  0  0
    6.2320   15.0910   25.6960 C   0  0  0  0  0  0  0  0  0  0  0  0
    5.3620   13.7050   26.4620 S   0  0  0  0  0  0  0  0  0  0  0  0
    6.2130   12.3050   25.8100 C   0  0  0  0  0  0  0  0  0  0  0  0
    5.6900   11.0710   26.1880 C   0  0  0  0  0  0  0  0  0  0  0  0
    6.2870    9.9100   25.7320 C   0  0  0  0  0  0  0  0  0  0  0  0
    7.4050    9.9630   24.9160 C   0  0  0  0  0  0  0  0  0  0  0  0
 16 15  1  0
 15 14  1  0
 14 23  2  0
 23 22  1  0
 22 21  2  0
 21 20  1  0
 20 13  2  0
 14 13  1  0
 13 12  1  0
 12 10  1  0
 11 10  2  0
 10  9  1  0
  9  7  1  0
  7  6  1  0
  6  5  1  0
  5  4  1  0
  4  2  1  6
  3  2  1  0
  2  1  2  0
  8  4  1  0
  9  8  1  0
 17 12  1  0
 18 17  1  0
 19 18  1  0
 20 19  1  0
M  END
$$$$
