XX01ZVNS2B-x3680_B_203_1_XX01ZVNS2B-x4590+B+203+1__LIG
     RDKit          3D

 24 27  0  0  0  0  0  0  0  0999 V2000
   -6.6700    5.5910  -12.4150 O   0  0  0  0  0  0  0  0  0  0  0  0
   -7.4730    4.8610  -12.9900 C   0  0  0  0  0  0  0  0  0  0  0  0
   -7.4320    4.7150  -14.4750 C   0  0  0  0  0  0  0  0  0  0  0  0
   -8.5170    4.3520  -15.2680 C   0  0  0  0  0  0  0  0  0  0  0  0
   -6.2240    5.0250  -15.0820 C   0  0  0  0  0  0  0  0  0  0  0  0
   -6.0910    4.9910  -16.4570 C   0  0  0  0  0  0  0  0  0  0  0  0
   -7.1570    4.6300  -17.2900 C   0  0  0  0  0  0  0  0  0  0  0  0
   -8.3790    4.3120  -16.6540 C   0  0  0  0  0  0  0  0  0  0  0  0
   -9.6010    3.8850  -17.8090 S   0  0  0  0  0  0  0  0  0  0  0  0
   -8.5050    4.1170  -19.1110 C   0  0  0  0  0  0  0  0  0  0  0  0
   -7.2610    4.5060  -18.7270 C   0  0  0  0  0  0  0  0  0  0  0  0
   -6.1570    4.7390  -19.7240 C   0  0  0  0  0  0  0  0  0  0  0  0
   -5.7080    6.2100  -19.8130 C   0  0  0  0  0  0  0  0  0  0  0  0
   -4.6420    6.3210  -20.8290 N   0  0  0  0  0  0  0  0  0  0  0  0
   -8.3910    4.1080  -12.3360 N   0  0  0  0  0  0  0  0  0  0  0  0
   -8.5510    4.0190  -10.9310 C   0  0  0  0  0  0  0  0  0  0  0  0
   -8.7930    2.7930  -10.3130 C   0  0  0  0  0  0  0  0  0  0  0  0
   -8.8280    2.7050   -8.9210 C   0  0  0  0  0  0  0  0  0  0  0  0
   -9.0460    1.5060   -8.0480 C   0  0  0  0  0  0  0  0  0  0  0  0
   -8.8500    2.0510   -6.7040 N   0  0  0  0  0  0  0  0  0  0  0  0
   -8.7120    3.5070   -6.6870 C   0  0  0  0  0  0  0  0  0  0  0  0
   -8.6290    3.8420   -8.1470 C   0  0  0  0  0  0  0  0  0  0  0  0
   -8.4020    5.0660   -8.7680 C   0  0  0  0  0  0  0  0  0  0  0  0
   -8.3700    5.1570  -10.1490 C   0  0  0  0  0  0  0  0  0  0  0  0
 14 13  1  0
 13 12  1  0
 12 11  1  0
 11 10  2  0
 10  9  1  0
  9  8  1  0
  8  4  2  0
  4  3  1  0
  3  2  1  0
  2  1  2  0
 15  2  1  0
 16 15  1  0
 16 24  2  0
 24 23  1  0
 23 22  2  0
 22 18  1  0
 18 17  2  0
 17 16  1  0
 19 18  1  0
 20 19  1  0
 21 20  1  0
 22 21  1  0
  5  3  2  0
  6  5  1  0
  7  6  2  0
 11  7  1  0
  8  7  1  0
M  END
$$$$
