7gp3-a
     RDKit          3D

 15 16  0  0  0  0  0  0  0  0999 V2000
   -6.1640  -28.2850   15.0850 N   0  0  0  0  0  0  0  0  0  0  0  0
   -7.6530  -27.8600   13.2390 C   0  0  0  0  0  0  0  0  0  0  0  0
   -9.0590  -27.8630   12.6910 C   0  0  0  0  0  0  0  0  0  0  0  0
   -9.5830  -25.4690   12.5200 C   0  0  0  0  0  0  0  0  0  0  0  0
  -10.2420  -24.3110   13.2190 C   0  0  0  0  0  0  0  0  0  0  0  0
  -11.2240  -23.5390   12.3610 C   0  0  0  0  0  0  0  0  0  0  0  0
   -9.3870  -23.0490   13.4390 C   0  0  0  0  0  0  0  0  0  0  0  0
   -9.8150  -26.6720   13.0540 N   0  0  0  0  0  0  0  0  0  0  0  0
   -3.8130  -27.6370   15.0640 C   0  0  0  0  0  0  0  0  0  0  0  0
   -8.9020  -25.3050   11.5040 O   0  0  0  0  0  0  0  0  0  0  0  0
   -5.1400  -27.7630   14.3780 C   0  0  0  0  0  0  0  0  0  0  0  0
   -7.3790  -28.3280   14.5110 C   0  0  0  0  0  0  0  0  0  0  0  0
   -5.3280  -27.3040   13.0740 C   0  0  0  0  0  0  0  0  0  0  0  0
   -6.5910  -27.3510   12.5170 C   0  0  0  0  0  0  0  0  0  0  0  0
  -10.4070  -22.2490   12.6440 C   0  0  0  0  0  0  0  0  0  0  0  0
  6 15  1  0
  6  5  1  0
 15  7  1  0
  5  7  1  0
  5  4  1  0
  9 11  1  0
  4 10  2  0
  4  8  1  0
  1 11  2  0
  1 12  1  0
 11 13  1  0
 12  2  2  0
  8  3  1  0
 13 14  2  0
  2 14  1  0
  2  3  1  0
M  END
>  <smiles>  (1) 
Cc1ccc(CNC(=O)C2CCC2)cn1

>  <inchikey>  (1) 
SQKAEGRLXBUQKF-UHFFFAOYSA-N

>  <alias>  (1) 
7gp3-a

$$$$
7gpu-a
     RDKit          3D

 16 17  0  0  0  0  0  0  0  0999 V2000
   12.3040   -3.6060    3.1920 C   0  0  0  0  0  0  0  0  0  0  0  0
   12.7450   -3.0370    4.3760 C   0  0  0  0  0  0  0  0  0  0  0  0
   13.3890   -3.8030    5.3170 C   0  0  0  0  0  0  0  0  0  0  0  0
   13.5710   -5.1470    5.0950 C   0  0  0  0  0  0  0  0  0  0  0  0
   13.1120   -5.7260    3.9260 C   0  0  0  0  0  0  0  0  0  0  0  0
    9.9290   -7.4970    3.4140 C   0  0  0  0  0  0  0  0  0  0  0  0
   10.7050   -7.2260    2.3720 N   0  0  0  0  0  0  0  0  0  0  0  0
   14.2490   -7.0340    1.5450 C   0  0  0  0  0  0  0  0  0  0  0  0
   14.6350   -8.1020    2.4310 O   0  0  0  0  0  0  0  0  0  0  0  0
   12.7510   -6.9250    1.2560 C   0  0  1  0  0  0  0  0  0  0  0  0
    9.2610   -6.3500    4.0870 C   0  0  0  0  0  0  0  0  0  0  0  0
   11.9030   -7.9780    1.9910 C   0  0  0  0  0  0  0  0  0  0  0  0
   12.0640   -5.5580    1.6170 C   0  0  2  0  0  0  0  0  0  0  0  0
   12.4920   -4.9570    2.9440 C   0  0  0  0  0  0  0  0  0  0  0  0
   10.6160   -5.9900    1.6160 C   0  0  0  0  0  0  0  0  0  0  0  0
    9.8520   -8.6340    3.8590 O   0  0  0  0  0  0  0  0  0  0  0  0
 11  6  1  0
 16  6  2  0
  6  7  1  0
 15  7  1  0
 15 13  1  0
  7 12  1  0
 12 10  1  0
 13 10  1  0
 13 14  1  1
 10  8  1  1
  5 14  1  0
  5  4  2  0
 14  1  2  0
  4  3  1  0
  8  9  1  0
  1  2  1  0
  3  2  2  0
M  END
>  <smiles>  (2) 
CC(=O)N1C[C@H](CO)[C@H](c2ccccc2)C1

>  <inchikey>  (2) 
AHYYDCAAWMKXAQ-OLZOCXBDSA-N

>  <alias>  (2) 
7gpu-a

$$$$
7gpu-b
     RDKit          3D

 16 17  0  0  0  0  0  0  0  0999 V2000
   13.6170   -2.7100   16.7550 C   0  0  0  0  0  0  0  0  0  0  0  0
   12.4320   -3.4090   16.5900 C   0  0  0  0  0  0  0  0  0  0  0  0
   11.5180   -3.0100   15.6420 C   0  0  0  0  0  0  0  0  0  0  0  0
   11.7690   -1.8940   14.8800 C   0  0  0  0  0  0  0  0  0  0  0  0
   12.9570   -1.1980   15.0340 C   0  0  0  0  0  0  0  0  0  0  0  0
   15.8330   -2.1520   12.4970 C   0  0  0  0  0  0  0  0  0  0  0  0
   16.0430   -1.8710   13.8110 N   0  0  0  0  0  0  0  0  0  0  0  0
   16.6600   -2.9530   17.3160 C   0  0  0  0  0  0  0  0  0  0  0  0
   16.8750   -2.1860   18.4970 O   0  0  0  0  0  0  0  0  0  0  0  0
   16.5390   -2.0560   16.0930 C   0  0  1  0  0  0  0  0  0  0  0  0
   14.6420   -1.5430   11.8260 C   0  0  0  0  0  0  0  0  0  0  0  0
   16.5730   -2.8410   14.7760 C   0  0  0  0  0  0  0  0  0  0  0  0
   15.3330   -1.0630   15.8680 C   0  0  2  0  0  0  0  0  0  0  0  0
   13.9220   -1.6280   15.9400 C   0  0  0  0  0  0  0  0  0  0  0  0
   15.7210   -0.6040   14.4680 C   0  0  0  0  0  0  0  0  0  0  0  0
   16.5900   -2.8860   11.8840 O   0  0  0  0  0  0  0  0  0  0  0  0
 11  6  1  0
 16  6  2  0
  6  7  1  0
 15  7  1  0
 15 13  1  0
  7 12  1  0
 12 10  1  0
 13 10  1  0
 13 14  1  6
 10  8  1  1
  5 14  1  0
  5  4  2  0
 14  1  2  0
  4  3  1  0
  8  9  1  0
  1  2  1  0
  3  2  2  0
M  END
>  <smiles>  (3) 
CC(=O)N1C[C@H](CO)[C@H](c2ccccc2)C1

>  <inchikey>  (3) 
AHYYDCAAWMKXAQ-OLZOCXBDSA-N

>  <alias>  (3) 
7gpu-b

$$$$
7gpj-a
     RDKit          3D

 19 20  0  0  0  0  0  0  0  0999 V2000
   -8.8150   -2.9590    7.6600 N   0  0  0  0  0  0  0  0  0  0  0  0
   -5.5640    1.9660    4.1790 C   0  0  0  0  0  0  0  0  0  0  0  0
   -5.8830    0.6200    4.2590 C   0  0  0  0  0  0  0  0  0  0  0  0
   -5.4690   -0.1310    5.3590 C   0  0  0  0  0  0  0  0  0  0  0  0
   -5.7480   -1.6120    5.3500 C   0  0  0  0  0  0  0  0  0  0  0  0
   -7.1960   -3.5000    5.8890 C   0  0  0  0  0  0  0  0  0  0  0  0
   -8.5710   -1.6660    7.6110 C   0  0  0  0  0  0  0  0  0  0  0  0
   -6.9050   -2.0570    5.8700 N   0  0  0  0  0  0  0  0  0  0  0  0
   -4.3280   -0.2490    7.6460 C   0  0  0  0  0  0  0  0  0  0  0  0
   -4.9200   -2.3700    4.8760 O   0  0  0  0  0  0  0  0  0  0  0  0
   -4.7510    0.4910    6.3990 C   0  0  0  0  0  0  0  0  0  0  0  0
   -7.9180   -1.1370    6.3720 C   0  0  0  0  0  0  0  0  0  0  0  0
   -4.4470    1.8430    6.2960 C   0  0  0  0  0  0  0  0  0  0  0  0
   -4.8460    2.5700    5.1850 C   0  0  0  0  0  0  0  0  0  0  0  0
   -8.4330   -3.9330    6.6570 C   0  0  0  0  0  0  0  0  0  0  0  0
   -5.3400   -0.4790    8.4600 F   0  0  0  0  0  0  0  0  0  0  0  0
   -3.8150   -1.4370    7.3960 F   0  0  0  0  0  0  0  0  0  0  0  0
   -3.4090    0.4090    8.3650 F   0  0  0  0  0  0  0  0  0  0  0  0
   -8.8220   -0.9140    8.5440 O   0  0  0  0  0  0  0  0  0  0  0  0
  2 14  2  0
  2  3  1  0
 14 13  1  0
  3  4  2  0
 13 11  2  0
  4 11  1  0
  4  5  1  0
 11  9  1  0
 18  9  1  0
 10  5  2  0
  5  8  1  0
  9 17  1  0
  9 16  1  0
  8 12  1  0
  8  6  1  0
 12  7  1  0
  6 15  1  0
  7 19  2  0
  7  1  1  0
 15  1  1  0
M  END
>  <smiles>  (4) 
O=C1CN(C(=O)c2ccccc2C(F)(F)F)CCN1

>  <inchikey>  (4) 
JQOVYBILMPXMLQ-UHFFFAOYSA-N

>  <alias>  (4) 
7gpj-a

$$$$
7gow-a
     RDKit          3D

 14 15  0  0  0  0  0  0  0  0999 V2000
  -11.3380  -26.4930   11.4760 N   0  0  0  0  0  0  0  0  0  0  0  0
  -12.6880  -28.4160   10.7840 C   0  0  0  0  0  0  0  0  0  0  0  0
  -10.8240  -25.2580   11.3840 C   0  0  0  0  0  0  0  0  0  0  0  0
  -10.0570  -24.7210   12.5930 C   0  0  1  0  0  0  0  0  0  0  0  0
   -8.8870  -23.8950   12.1970 C   0  0  0  0  0  0  0  0  0  0  0  0
   -9.1940  -22.5050   12.7110 C   0  0  0  0  0  0  0  0  0  0  0  0
  -12.0740  -29.3420   11.7390 N   0  0  0  0  0  0  0  0  0  0  0  0
  -11.3650  -30.4250   11.0390 C   0  0  0  0  0  0  0  0  0  0  0  0
  -10.9490  -24.5860   10.3770 O   0  0  0  0  0  0  0  0  0  0  0  0
  -11.1690  -28.6160   12.6340 C   0  0  0  0  0  0  0  0  0  0  0  0
  -11.5770  -27.1700   12.7510 C   0  0  0  0  0  0  0  0  0  0  0  0
  -11.6960  -27.3470   10.3400 C   0  0  0  0  0  0  0  0  0  0  0  0
  -10.1580  -22.7660   13.8020 C   0  0  0  0  0  0  0  0  0  0  0  0
  -10.9160  -23.9140   13.4050 O   0  0  0  0  0  0  0  0  0  0  0  0
  8  7  1  0
  7 10  1  0
  7  2  1  0
 10 11  1  0
  2 12  1  0
 12  1  1  0
 11  1  1  0
  1  3  1  0
  4  3  1  6
  3  9  2  0
  4  5  1  0
  4 14  1  0
  5  6  1  0
 14 13  1  0
 13  6  1  0
M  END
>  <smiles>  (5) 
CN1CCN(C(=O)[C@H]2CCCO2)CC1

>  <inchikey>  (5) 
ZSHARPJAQXGCMB-SECBINFHSA-N

>  <alias>  (5) 
7gow-a

$$$$
7gpp-a
     RDKit          3D

 13 13  0  0  0  0  0  0  0  0999 V2000
  -13.9700  -25.2260   13.0770 C   0  0  0  0  0  0  0  0  0  0  0  0
  -13.2690  -26.2220   14.0040 C   0  0  2  0  0  0  0  0  0  0  0  0
  -13.4090  -25.8600   15.4770 C   0  0  0  0  0  0  0  0  0  0  0  0
  -10.3340  -24.4260   12.5420 C   0  0  0  0  0  0  0  0  0  0  0  0
   -9.4940  -22.5000   13.6160 C   0  0  0  0  0  0  0  0  0  0  0  0
  -11.8600  -26.1750   13.5330 N   0  0  0  0  0  0  0  0  0  0  0  0
  -10.6580  -27.2890   15.3680 C   0  0  0  0  0  0  0  0  0  0  0  0
  -10.0680  -27.4450   13.0690 O   0  0  0  0  0  0  0  0  0  0  0  0
  -10.8280  -26.9850   13.9080 C   0  0  0  0  0  0  0  0  0  0  0  0
  -11.6540  -25.1850   12.4730 C   0  0  1  0  0  0  0  0  0  0  0  0
  -12.8600  -24.2630   12.6420 C   0  0  0  0  0  0  0  0  0  0  0  0
   -9.5170  -24.4160   11.6660 O   0  0  0  0  0  0  0  0  0  0  0  0
  -10.1960  -23.7690   13.6860 O   0  0  0  0  0  0  0  0  0  0  0  0
  8  9  2  0
  7  9  1  0
  9  6  1  0
  6  2  1  0
  6 10  1  0
  2  3  1  1
  2  1  1  0
 10  4  1  1
 10 11  1  0
  1 11  1  0
 12  4  2  0
  4 13  1  0
 13  5  1  0
M  END
>  <smiles>  (6) 
COC(=O)[C@@H]1CC[C@H](C)N1C(C)=O

>  <inchikey>  (6) 
OZKGZCZMUGXZPD-XPUUQOCRSA-N

>  <alias>  (6) 
7gpp-a

$$$$
7goh-a
     RDKit          3D

 14 15  0  0  0  0  0  0  0  0999 V2000
  -11.3410  -21.9420   31.4650 N   0  0  0  0  0  0  0  0  0  0  0  0
  -11.5480  -23.9210   28.3850 C   0  0  1  0  0  0  0  0  0  0  0  0
  -13.0090  -24.3100   28.2360 C   0  0  0  0  0  0  0  0  0  0  0  0
  -11.2520  -22.2820   30.1980 C   0  0  0  0  0  0  0  0  0  0  0  0
  -11.3380  -20.5710   31.5640 C   0  0  0  0  0  0  0  0  0  0  0  0
  -11.4550  -19.8870   32.8780 C   0  0  0  0  0  0  0  0  0  0  0  0
  -11.2070  -23.5580   29.7760 N   0  0  0  0  0  0  0  0  0  0  0  0
  -10.6120  -25.2760   26.4410 C   0  0  0  0  0  0  0  0  0  0  0  0
   -9.2840  -24.7090   28.2980 O   0  0  0  0  0  0  0  0  0  0  0  0
  -10.6170  -25.0440   27.9330 C   0  0  1  0  0  0  0  0  0  0  0  0
   -9.0730  -24.7040   29.7210 C   0  0  0  0  0  0  0  0  0  0  0  0
  -10.3710  -24.5420   30.4690 C   0  0  0  0  0  0  0  0  0  0  0  0
  -11.2500  -19.8440   30.4750 N   0  0  0  0  0  0  0  0  0  0  0  0
  -11.1720  -20.8820   29.1660 S   0  0  0  0  0  0  0  0  0  0  0  0
 14 13  1  0
 14  4  1  0
 10  8  1  6
 13  5  2  0
  9 10  1  0
  9 11  1  0
 10  2  1  0
  2  3  1  1
  2  7  1  0
  4  7  1  0
  4  1  2  0
  5  1  1  0
  5  6  1  0
 11 12  1  0
  7 12  1  0
M  END
>  <smiles>  (7) 
Cc1nsc(N2CCO[C@H](C)[C@H]2C)n1

>  <inchikey>  (7) 
ZYTILAVGDCNHRS-RNFRBKRXSA-N

>  <alias>  (7) 
7goh-a

$$$$
7goi-a
     RDKit          3D

 15 16  0  0  0  0  0  0  0  0999 V2000
   -5.4950    0.2740    6.8470 C   0  0  0  0  0  0  0  0  0  0  0  0
   -4.4030   -2.3050    6.8520 C   0  0  0  0  0  0  0  0  0  0  0  0
   -6.2230   -0.8140    6.3550 C   0  0  0  0  0  0  0  0  0  0  0  0
   -7.2770    1.8660    6.8980 O   0  0  0  0  0  0  0  0  0  0  0  0
   -6.0650    1.6630    6.7990 C   0  0  0  0  0  0  0  0  0  0  0  0
   -5.1910    2.6680    6.6470 N   0  0  0  0  0  0  0  0  0  0  0  0
   -5.5960    4.0240    6.2770 C   0  0  2  0  0  0  0  0  0  0  0  0
   -4.5060    4.7160    5.4560 C   0  0  0  0  0  0  0  0  0  0  0  0
   -3.5500    5.5140    6.3430 C   0  0  0  0  0  0  0  0  0  0  0  0
   -3.5070    4.9360    7.7360 C   0  0  0  0  0  0  0  0  0  0  0  0
   -4.8090    5.0700    8.4140 N   0  0  0  0  0  0  0  0  0  0  0  0
   -5.9460    4.8310    7.5160 C   0  0  0  0  0  0  0  0  0  0  0  0
   -4.2130    0.0390    7.3590 C   0  0  0  0  0  0  0  0  0  0  0  0
   -3.6750   -1.2420    7.3550 C   0  0  0  0  0  0  0  0  0  0  0  0
   -5.6730   -2.0930    6.3580 C   0  0  0  0  0  0  0  0  0  0  0  0
 10  9  1  0
 10 11  1  0
  9  8  1  0
 11 12  1  0
  8  7  1  0
 12  7  1  0
  7  6  1  1
  6  5  1  0
  4  5  2  0
  5  1  1  0
  1  3  2  0
  1 13  1  0
  3 15  1  0
 13 14  2  0
 15  2  2  0
 14  2  1  0
M  END
>  <smiles>  (8) 
O=C(N[C@@H]1CCCNC1)c1ccccc1

>  <inchikey>  (8) 
ZFLKDMGBVZHBAC-LLVKDONJSA-N

>  <alias>  (8) 
7goi-a

$$$$
7gp1-a
     RDKit          3D

 15 16  0  0  0  0  0  0  0  0999 V2000
  -20.1820    3.2630   19.3220 N   0  0  0  0  0  0  0  0  0  0  0  0
  -21.2800    2.7350   18.7270 N   0  0  0  0  0  0  0  0  0  0  0  0
  -20.3130    3.9910   23.4410 C   0  0  0  0  0  0  0  0  0  0  0  0
  -21.0930    4.7280   22.5800 C   0  0  0  0  0  0  0  0  0  0  0  0
  -21.0390    4.4940   21.2150 C   0  0  0  0  0  0  0  0  0  0  0  0
  -20.1900    3.5060   20.7270 C   0  0  0  0  0  0  0  0  0  0  0  0
  -19.1900    3.4300   18.4200 C   0  0  0  0  0  0  0  0  0  0  0  0
  -19.0170    2.7330   15.9520 C   0  0  0  0  0  0  0  0  0  0  0  0
  -18.4840    1.6480   21.0760 C   0  0  0  0  0  0  0  0  0  0  0  0
  -19.3940    2.7380   21.5820 C   0  0  0  0  0  0  0  0  0  0  0  0
  -19.4750    3.0060   22.9490 C   0  0  0  0  0  0  0  0  0  0  0  0
  -19.6960    2.9430   17.2450 C   0  0  0  0  0  0  0  0  0  0  0  0
  -20.9830    2.5470   17.4620 N   0  0  0  0  0  0  0  0  0  0  0  0
  -17.8150    2.9030   15.8060 O   0  0  0  0  0  0  0  0  0  0  0  0
  -19.8110    2.3260   14.9970 O   0  0  0  0  0  0  0  0  0  0  0  0
 11  3  2  0
 11 10  1  0
  3  4  1  0
  9 10  1  0
 10  6  2  0
  4  5  2  0
  6  5  1  0
  6  1  1  0
  1  7  1  0
  1  2  1  0
  7 12  2  0
  2 13  2  0
 12 13  1  0
 12  8  1  0
 14  8  2  0
  8 15  1  0
M  END
>  <smiles>  (9) 
Cc1ccccc1-n1cc(C(=O)O)nn1

>  <inchikey>  (9) 
DAYJQFRBEKQYDR-UHFFFAOYSA-N

>  <alias>  (9) 
7gp1-a

$$$$
7goo-a
     RDKit          3D

 15 16  0  0  0  0  0  0  0  0999 V2000
  -13.1660  -23.8320   29.6720 N   0  0  0  0  0  0  0  0  0  0  0  0
  -13.6950  -23.8540   30.9030 C   0  0  0  0  0  0  0  0  0  0  0  0
  -14.7580  -24.9520   31.1080 C   0  0  0  0  0  0  0  0  0  0  0  0
  -12.5810  -21.4920   34.0850 C   0  0  0  0  0  0  0  0  0  0  0  0
  -11.7250  -22.1710   35.1350 C   0  0  0  0  0  0  0  0  0  0  0  0
  -10.4650  -21.3760   35.4120 C   0  0  0  0  0  0  0  0  0  0  0  0
  -10.4460  -21.2850   32.9260 C   0  0  0  0  0  0  0  0  0  0  0  0
  -13.3470  -23.0660   31.9320 N   0  0  0  0  0  0  0  0  0  0  0  0
  -11.5240  -22.9910   28.1100 C   0  0  0  0  0  0  0  0  0  0  0  0
  -15.5690  -24.7660   32.2620 O   0  0  0  0  0  0  0  0  0  0  0  0
  -12.1860  -22.9410   29.4510 C   0  0  0  0  0  0  0  0  0  0  0  0
  -11.7630  -22.0760   30.4450 C   0  0  0  0  0  0  0  0  0  0  0  0
  -12.3600  -22.1860   31.7030 C   0  0  0  0  0  0  0  0  0  0  0  0
  -10.0760  -20.5630   34.1990 C   0  0  0  0  0  0  0  0  0  0  0  0
  -11.8960  -21.4760   32.7900 N   0  0  0  0  0  0  0  0  0  0  0  0
  9 11  1  0
 12 11  1  0
 12 13  2  0
 11  1  2  0
  7 14  1  0
  7 15  1  0
 14  6  1  0
  1  2  1  0
 13 15  1  0
 13  8  1  0
 15  4  1  0
  2  8  2  0
  2  3  1  0
  6  5  1  0
  4  5  1  0
  3 10  1  0
M  END
>  <smiles>  (10) 
Cc1cc(N2CCCCC2)nc(CO)n1

>  <inchikey>  (10) 
GZINCFOQQRVKFL-UHFFFAOYSA-N

>  <alias>  (10) 
7goo-a

$$$$
7gop-a
     RDKit          3D

 14 14  0  0  0  0  0  0  0  0999 V2000
  -11.3160  -25.1120   27.9180 N   0  0  0  0  0  0  0  0  0  0  0  0
  -12.3950  -22.3820   30.2870 N   0  0  0  0  0  0  0  0  0  0  0  0
  -11.5380  -24.2760   28.9680 C   0  0  0  0  0  0  0  0  0  0  0  0
  -11.9230  -23.3650   31.0190 C   0  0  0  0  0  0  0  0  0  0  0  0
  -12.1040  -23.1550   32.4860 C   0  0  0  0  0  0  0  0  0  0  0  0
  -11.3790  -24.4910   30.3330 C   0  0  0  0  0  0  0  0  0  0  0  0
  -10.7330  -25.6150   30.9250 C   0  0  0  0  0  0  0  0  0  0  0  0
  -10.7450  -26.4400   28.0970 C   0  0  0  0  0  0  0  0  0  0  0  0
  -11.6670  -24.7260   26.5560 C   0  0  0  0  0  0  0  0  0  0  0  0
  -13.1560  -24.7880   26.2450 C   0  0  0  0  0  0  0  0  0  0  0  0
  -13.6410  -24.0850   25.3550 O   0  0  0  0  0  0  0  0  0  0  0  0
  -13.8710  -25.6320   26.9720 N   0  0  0  0  0  0  0  0  0  0  0  0
  -12.2470  -22.7400   28.6960 S   0  0  0  0  0  0  0  0  0  0  0  0
  -10.2040  -26.5510   31.3140 N   0  0  0  0  0  0  0  0  0  0  0  0
  8  1  1  0
  1  9  1  0
  9 10  1  0
 10 11  2  0
 10 12  1  0
  1  3  1  0
  3 13  1  0
 13  2  1  0
  2  4  2  0
  4  5  1  0
  4  6  1  0
  6  7  1  0
  7 14  3  0
  3  6  2  0
M  END
>  <smiles>  (11) 
Cc1nsc(N(C)CC(N)=O)c1C#N

>  <inchikey>  (11) 
BCFQGXBWVPWHCV-UHFFFAOYSA-N

>  <alias>  (11) 
7gop-a

$$$$
7goq-a
     RDKit          3D

 14 15  0  0  0  0  0  0  0  0999 V2000
  -12.8520  -24.3700    8.1630 N   0  0  0  0  0  0  0  0  0  0  0  0
   -9.3620  -22.5300   13.7560 C   0  0  0  0  0  0  0  0  0  0  0  0
  -10.2140  -21.6880   12.8870 C   0  0  0  0  0  0  0  0  0  0  0  0
  -12.0170  -25.8410    9.8880 C   0  0  0  0  0  0  0  0  0  0  0  0
  -11.7800  -26.8150    8.9200 C   0  0  0  0  0  0  0  0  0  0  0  0
  -12.1070  -26.5760    7.5910 C   0  0  0  0  0  0  0  0  0  0  0  0
  -12.5450  -24.6330    9.4390 C   0  0  0  0  0  0  0  0  0  0  0  0
  -11.7270  -24.9040   12.1940 N   0  0  0  0  0  0  0  0  0  0  0  0
  -12.8250  -27.0580   11.9730 C   0  0  0  0  0  0  0  0  0  0  0  0
   -9.7380  -24.1640   11.4330 O   0  0  0  0  0  0  0  0  0  0  0  0
  -11.7790  -26.1230   11.3710 C   0  0  1  0  0  0  0  0  0  0  0  0
  -10.6630  -24.0930   12.2320 C   0  0  0  0  0  0  0  0  0  0  0  0
  -10.6890  -23.0600   13.2800 C   0  0  0  0  0  0  0  0  0  0  0  0
  -12.6460  -25.3480    7.2600 C   0  0  0  0  0  0  0  0  0  0  0  0
  5  6  2  0
  5  4  1  0
 11  9  1  1
  6 14  1  0
 11  4  1  0
 11  8  1  0
  4  7  2  0
 14  1  2  0
  8 12  1  0
  7  1  1  0
 10 12  2  0
 12 13  1  0
 13  2  1  0
 13  3  1  0
  2  3  1  0
M  END
>  <smiles>  (12) 
C[C@H](NC(=O)C1CC1)c1cccnc1

>  <inchikey>  (12) 
XMSIZXIEDPYJDR-QMMMGPOBSA-N

>  <alias>  (12) 
7goq-a

$$$$
7got-a
     RDKit          3D

 16 17  0  0  0  0  0  0  0  0999 V2000
   12.2730    0.4790   15.9250 N   0  0  0  0  0  0  0  0  0  0  0  0
   13.2370    2.2240   17.3380 C   0  0  0  0  0  0  0  0  0  0  0  0
   13.1700    0.7930   16.8440 C   0  0  0  0  0  0  0  0  0  0  0  0
   12.3040   -0.9140   15.8530 C   0  0  0  0  0  0  0  0  0  0  0  0
   11.5090   -1.8000   15.1290 C   0  0  0  0  0  0  0  0  0  0  0  0
   11.6890   -3.1620   15.3150 C   0  0  0  0  0  0  0  0  0  0  0  0
   13.4620   -2.7680   16.9160 C   0  0  0  0  0  0  0  0  0  0  0  0
   16.0090    2.6650   15.3460 O   0  0  0  0  0  0  0  0  0  0  0  0
   15.4400    2.7140   16.4350 C   0  0  0  0  0  0  0  0  0  0  0  0
   16.1830    2.4140   17.7200 C   0  0  0  0  0  0  0  0  0  0  0  0
   16.5200    3.6760   18.5190 C   0  0  0  0  0  0  0  0  0  0  0  0
   15.3610    4.2360   19.3420 C   0  0  0  0  0  0  0  0  0  0  0  0
   14.1490    3.0280   16.5540 N   0  0  0  0  0  0  0  0  0  0  0  0
   13.8170   -0.2880   17.3430 N   0  0  0  0  0  0  0  0  0  0  0  0
   13.2660   -1.4070   16.7360 C   0  0  0  0  0  0  0  0  0  0  0  0
   12.6540   -3.6410   16.2000 C   0  0  0  0  0  0  0  0  0  0  0  0
  7 16  2  0
  7 15  1  0
 16  6  1  0
 15 14  1  0
 15  4  2  0
 14  3  2  0
  6  5  2  0
  4  5  1  0
  4  1  1  0
  3  2  1  0
  3  1  1  0
  2 13  1  0
 13  9  1  0
  8  9  2  0
  9 10  1  0
 10 11  1  0
 11 12  1  0
M  END
>  <smiles>  (13) 
CCCC(=O)NCc1nc2ccccc2[nH]1

>  <inchikey>  (13) 
MXDONONSXPZRMO-UHFFFAOYSA-N

>  <alias>  (13) 
7got-a

$$$$
7gov-a
     RDKit          3D

 17 18  0  0  0  0  0  0  0  0999 V2000
   -1.7860   -8.3390   31.4330 N   0  0  0  0  0  0  0  0  0  0  0  0
    0.6550   -3.7360   38.2070 C   0  0  0  0  0  0  0  0  0  0  0  0
    0.0450   -4.4030   37.1740 C   0  0  0  0  0  0  0  0  0  0  0  0
    0.7260   -4.5010   35.9600 C   0  0  0  0  0  0  0  0  0  0  0  0
    0.3190   -6.5560   34.7190 C   0  0  0  0  0  0  0  0  0  0  0  0
   -0.4200   -7.1590   33.5680 C   0  0  0  0  0  0  0  0  0  0  0  0
   -0.9010   -7.3540   31.2390 C   0  0  0  0  0  0  0  0  0  0  0  0
    0.1540   -5.2300   34.8970 N   0  0  0  0  0  0  0  0  0  0  0  0
    2.7820   -4.0740   34.5170 C   0  0  0  0  0  0  0  0  0  0  0  0
    1.0130   -7.2460   35.4590 O   0  0  0  0  0  0  0  0  0  0  0  0
    1.9980   -3.9230   35.7960 C   0  0  0  0  0  0  0  0  0  0  0  0
   -1.9860   -8.7330   32.6960 C   0  0  0  0  0  0  0  0  0  0  0  0
   -1.3360   -8.1810   33.7840 C   0  0  0  0  0  0  0  0  0  0  0  0
    2.5440   -3.2370   36.8800 C   0  0  0  0  0  0  0  0  0  0  0  0
    1.8850   -3.1450   38.0920 C   0  0  0  0  0  0  0  0  0  0  0  0
   -0.2030   -6.7390   32.2600 C   0  0  0  0  0  0  0  0  0  0  0  0
    0.0140   -3.6840   39.4080 F   0  0  0  0  0  0  0  0  0  0  0  0
  9 11  1  0
 11 14  2  0
 11  4  1  0
 14 15  1  0
  7 16  1  0
  7  1  2  0
 16  6  2  0
  8  4  1  0
  8  5  1  0
  4  3  2  0
 15  2  2  0
  1 12  1  0
  6  5  1  0
  6 13  1  0
  5 10  2  0
  3  2  1  0
  2 17  1  0
 12 13  2  0
M  END
>  <smiles>  (14) 
Cc1ccc(F)cc1NC(=O)c1ccncc1

>  <inchikey>  (14) 
CUFWRVYZYQAQCS-UHFFFAOYSA-N

>  <alias>  (14) 
7gov-a

$$$$
7goy-b
     RDKit          3D

 14 14  0  0  0  0  0  0  0  0999 V2000
  -22.4600   -3.1550   29.0230 N   0  0  0  0  0  0  0  0  0  0  0  0
  -21.6430   -2.5230   29.8410 C   0  0  0  0  0  0  0  0  0  0  0  0
  -20.7990   -1.6310   29.1640 C   0  0  0  0  0  0  0  0  0  0  0  0
  -21.1350   -1.7540   27.8720 C   0  0  0  0  0  0  0  0  0  0  0  0
  -20.6590   -1.1240   26.6140 C   0  0  0  0  0  0  0  0  0  0  0  0
  -20.5250   -2.5570   31.9560 N   0  0  0  0  0  0  0  0  0  0  0  0
  -19.0640   -5.3900   34.6380 C   0  0  0  0  0  0  0  0  0  0  0  0
  -19.3500   -4.0070   34.9760 O   0  0  0  0  0  0  0  0  0  0  0  0
  -19.2450   -3.0880   34.0030 C   0  0  0  0  0  0  0  0  0  0  0  0
  -19.8490   -3.5880   32.7140 C   0  0  0  0  0  0  0  0  0  0  0  0
  -21.6560   -2.8200   31.2940 C   0  0  0  0  0  0  0  0  0  0  0  0
  -18.7470   -2.0030   34.1660 O   0  0  0  0  0  0  0  0  0  0  0  0
  -22.6530   -3.3020   31.8370 O   0  0  0  0  0  0  0  0  0  0  0  0
  -22.1290   -2.6580   27.7410 O   0  0  0  0  0  0  0  0  0  0  0  0
 14  1  1  0
 14  4  1  0
 12  9  2  0
  1  2  2  0
  6 10  1  0
  6 11  1  0
  4  5  1  0
  4  3  2  0
  9 10  1  0
  9  8  1  0
  2 11  1  0
  2  3  1  0
  7  8  1  0
 11 13  2  0
M  END
>  <smiles>  (15) 
COC(=O)CNC(=O)c1cc(C)on1

>  <inchikey>  (15) 
FPAQMEYCJIMDCC-UHFFFAOYSA-N

>  <alias>  (15) 
7goy-b

$$$$
7goy-a
     RDKit          3D

 14 14  0  0  0  0  0  0  0  0999 V2000
   -1.1070    0.0340   31.3590 N   0  0  0  0  0  0  0  0  0  0  0  0
   -1.8670   -0.9920   31.0400 C   0  0  0  0  0  0  0  0  0  0  0  0
   -1.7140   -1.3620   29.6890 C   0  0  0  0  0  0  0  0  0  0  0  0
   -0.8050   -0.5060   29.1970 C   0  0  0  0  0  0  0  0  0  0  0  0
   -0.1370   -0.3500   27.8790 C   0  0  0  0  0  0  0  0  0  0  0  0
   -3.0260   -0.8940   33.1310 N   0  0  0  0  0  0  0  0  0  0  0  0
   -7.2220   -0.9230   35.3990 C   0  0  0  0  0  0  0  0  0  0  0  0
   -5.7760   -0.9880   35.4310 O   0  0  0  0  0  0  0  0  0  0  0  0
   -5.1420   -0.6870   34.3080 C   0  0  0  0  0  0  0  0  0  0  0  0
   -3.8330   -1.4120   34.2150 C   0  0  0  0  0  0  0  0  0  0  0  0
   -2.7340   -1.6350   32.0570 C   0  0  0  0  0  0  0  0  0  0  0  0
   -5.5530    0.0630   33.5040 O   0  0  0  0  0  0  0  0  0  0  0  0
   -3.1480   -2.7910   31.9080 O   0  0  0  0  0  0  0  0  0  0  0  0
   -0.4170    0.3530   30.1590 O   0  0  0  0  0  0  0  0  0  0  0  0
 14  1  1  0
 14  4  1  0
 12  9  2  0
  1  2  2  0
  6 10  1  0
  6 11  1  0
  4  5  1  0
  4  3  2  0
  9 10  1  0
  9  8  1  0
  2 11  1  0
  2  3  1  0
  7  8  1  0
 11 13  2  0
M  END
>  <smiles>  (16) 
COC(=O)CNC(=O)c1cc(C)on1

>  <inchikey>  (16) 
FPAQMEYCJIMDCC-UHFFFAOYSA-N

>  <alias>  (16) 
7goy-a

$$$$
7goz-a
     RDKit          3D

 15 16  0  0  0  0  0  0  0  0999 V2000
   13.0890   -1.1860   16.5640 N   0  0  0  0  0  0  0  0  0  0  0  0
   11.5930   -1.2840   14.6910 C   0  0  0  0  0  0  0  0  0  0  0  0
   12.4300   -0.6040   15.5510 C   0  0  0  0  0  0  0  0  0  0  0  0
   14.4350   -4.4580   19.6310 C   0  0  2  0  0  0  0  0  0  0  0  0
   15.0810   -3.2110   20.1930 C   0  0  0  0  0  0  0  0  0  0  0  0
   14.5600   -3.9230   22.3670 C   0  0  0  0  0  0  0  0  0  0  0  0
   13.4810   -2.9880   17.9300 N   0  0  0  0  0  0  0  0  0  0  0  0
   13.8750   -4.2520   18.2260 C   0  0  0  0  0  0  0  0  0  0  0  0
   13.8270   -5.1980   17.4460 O   0  0  0  0  0  0  0  0  0  0  0  0
   12.9050   -2.5010   16.7480 C   0  0  0  0  0  0  0  0  0  0  0  0
   12.0910   -3.2760   15.9110 C   0  0  0  0  0  0  0  0  0  0  0  0
   11.4320   -2.6350   14.8760 C   0  0  0  0  0  0  0  0  0  0  0  0
   13.8810   -5.1450   21.8250 C   0  0  0  0  0  0  0  0  0  0  0  0
   15.6030   -3.4700   21.4990 O   0  0  0  0  0  0  0  0  0  0  0  0
   13.3790   -4.8850   20.5030 O   0  0  0  0  0  0  0  0  0  0  0  0
  3  2  1  0
  3  1  2  0
  2 12  2  0
  1 10  1  0
 12 11  1  0
 10 11  2  0
 10  7  1  0
  7  8  1  0
  8  9  2  0
  4  8  1  6
  5  4  1  0
  5 14  1  0
  4 15  1  0
 14  6  1  0
 15 13  1  0
  6 13  1  0
M  END
>  <smiles>  (17) 
O=C(Nc1ccccn1)[C@H]1COCCO1

>  <inchikey>  (17) 
MYQOETKNJQIOKN-MRVPVSSYSA-N

>  <alias>  (17) 
7goz-a

$$$$
7gp0-a
     RDKit          3D

 14 14  0  0  0  0  0  0  0  0999 V2000
   16.1180   -4.4190   17.4710 N   0  0  0  0  0  0  0  0  0  0  0  0
   15.7130    0.7780   17.9410 C   0  0  0  0  0  0  0  0  0  0  0  0
   15.3880    0.2910   16.6860 C   0  0  0  0  0  0  0  0  0  0  0  0
   15.0870   -1.0550   16.5200 C   0  0  0  0  0  0  0  0  0  0  0  0
   15.2040   -1.0450   14.1620 C   0  0  0  0  0  0  0  0  0  0  0  0
   14.7200   -3.6300   17.5210 S   0  0  0  0  0  0  0  0  0  0  0  0
   14.0610   -3.8550   16.2700 O   0  0  0  0  0  0  0  0  0  0  0  0
   14.0390   -4.0220   18.7230 O   0  0  0  0  0  0  0  0  0  0  0  0
   15.0950   -1.9010   17.6400 C   0  0  0  0  0  0  0  0  0  0  0  0
   15.4210   -1.4020   18.8940 C   0  0  0  0  0  0  0  0  0  0  0  0
   15.7340   -0.0600   19.0340 C   0  0  0  0  0  0  0  0  0  0  0  0
   14.8340   -1.6500   15.3080 O   0  0  0  0  0  0  0  0  0  0  0  0
   14.3230   -0.0300   14.0670 F   0  0  0  0  0  0  0  0  0  0  0  0
   16.4610   -0.5760   14.3480 F   0  0  0  0  0  0  0  0  0  0  0  0
  7  6  2  0
 10 11  1  0
 10  9  2  0
  8  6  2  0
  6  9  1  0
  6  1  1  0
 11  2  2  0
  9  4  1  0
  2  3  1  0
  4  3  2  0
  4 12  1  0
  5 13  1  0
  5 12  1  0
  5 14  1  0
M  END
>  <smiles>  (18) 
NS(=O)(=O)c1ccccc1OC(F)F

>  <inchikey>  (18) 
XDODAVQVIOWLPT-UHFFFAOYSA-N

>  <alias>  (18) 
7gp0-a

$$$$
7gp0-b
     RDKit          3D

 14 14  0  0  0  0  0  0  0  0999 V2000
   -9.9050  -24.9720   32.4590 N   0  0  0  0  0  0  0  0  0  0  0  0
  -11.3880  -24.7210   27.4510 C   0  0  0  0  0  0  0  0  0  0  0  0
  -11.5570  -23.7620   28.4360 C   0  0  0  0  0  0  0  0  0  0  0  0
  -11.4490  -24.1170   29.7690 C   0  0  0  0  0  0  0  0  0  0  0  0
  -12.7170  -22.7920   31.1990 C   0  0  0  0  0  0  0  0  0  0  0  0
  -11.0000  -25.9300   31.7840 S   0  0  0  0  0  0  0  0  0  0  0  0
  -10.4660  -27.2660   31.8260 O   0  0  0  0  0  0  0  0  0  0  0  0
  -12.2590  -25.6450   32.4140 O   0  0  0  0  0  0  0  0  0  0  0  0
  -11.1800  -25.4520   30.1010 C   0  0  0  0  0  0  0  0  0  0  0  0
  -11.0270  -26.4120   29.1130 C   0  0  0  0  0  0  0  0  0  0  0  0
  -11.1230  -26.0340   27.7870 C   0  0  0  0  0  0  0  0  0  0  0  0
  -11.5460  -23.2420   30.8200 O   0  0  0  0  0  0  0  0  0  0  0  0
  -12.5920  -21.6880   30.5470 F   0  0  0  0  0  0  0  0  0  0  0  0
  -12.6340  -22.5070   32.4840 F   0  0  0  0  0  0  0  0  0  0  0  0
  7  6  2  0
 10 11  1  0
 10  9  2  0
  8  6  2  0
  6  9  1  0
  6  1  1  0
 11  2  2  0
  9  4  1  0
  2  3  1  0
  4  3  2  0
  4 12  1  0
  5 13  1  0
  5 12  1  0
  5 14  1  0
M  END
>  <smiles>  (19) 
NS(=O)(=O)c1ccccc1OC(F)F

>  <inchikey>  (19) 
XDODAVQVIOWLPT-UHFFFAOYSA-N

>  <alias>  (19) 
7gp0-b

$$$$
7gny-a
     RDKit          3D

 15 16  0  0  0  0  0  0  0  0999 V2000
   16.0910    1.4620   17.6320 C   0  0  0  0  0  0  0  0  0  0  0  0
   15.3360   -2.8110   17.1050 O   0  0  0  0  0  0  0  0  0  0  0  0
   14.5800   -1.8440   16.9900 C   0  0  0  0  0  0  0  0  0  0  0  0
   14.8440   -0.6340   17.5090 N   0  0  0  0  0  0  0  0  0  0  0  0
   16.1860   -0.0480   17.5030 C   0  0  2  0  0  0  0  0  0  0  0  0
   17.0480   -0.6300   18.6210 C   0  0  0  0  0  0  0  0  0  0  0  0
   16.6680   -0.1460   20.0230 C   0  0  0  0  0  0  0  0  0  0  0  0
   15.7380    1.0320   20.0470 C   0  0  0  0  0  0  0  0  0  0  0  0
   15.0240    1.2380   21.0250 O   0  0  0  0  0  0  0  0  0  0  0  0
   15.6990    1.8290   18.9910 N   0  0  0  0  0  0  0  0  0  0  0  0
   13.3120   -1.9430   16.2250 C   0  0  0  0  0  0  0  0  0  0  0  0
   12.6860   -3.1140   15.9470 C   0  0  0  0  0  0  0  0  0  0  0  0
   11.3550   -2.8420   14.9220 S   0  0  0  0  0  0  0  0  0  0  0  0
   11.7050   -1.1700   14.9440 C   0  0  0  0  0  0  0  0  0  0  0  0
   12.7380   -0.8170   15.6550 N   0  0  0  0  0  0  0  0  0  0  0  0
 12 13  1  0
 12 11  2  0
 13 14  1  0
  2  3  2  0
 11  3  1  0
 11 15  1  0
  3  4  1  0
 14 15  2  0
  1 10  1  0
  1  5  1  0
 10  8  1  0
  5  4  1  1
  5  6  1  0
  8  9  2  0
  8  7  1  0
  6  7  1  0
M  END
>  <smiles>  (20) 
O=C1CC[C@@H](NC(=O)c2cscn2)CN1

>  <inchikey>  (20) 
MTDCJLXPYPQTPX-ZCFIWIBFSA-N

>  <alias>  (20) 
7gny-a

$$$$
7gpc-a
     RDKit          3D

 13 13  0  0  0  0  0  0  0  0999 V2000
   13.9250   -2.0260   15.6220 C   0  0  0  0  0  0  0  0  0  0  0  0
   14.9380   -0.9360   15.4340 C   0  0  0  0  0  0  0  0  0  0  0  0
   14.9670    1.6640   15.1400 C   0  0  0  0  0  0  0  0  0  0  0  0
   13.8920    2.7470   15.1400 C   0  0  0  0  0  0  0  0  0  0  0  0
   15.8240    1.7870   16.4010 C   0  0  0  0  0  0  0  0  0  0  0  0
   14.3050    0.3320   15.0650 N   0  0  0  0  0  0  0  0  0  0  0  0
   12.4300   -1.5160   13.6450 C   0  0  0  0  0  0  0  0  0  0  0  0
   15.0650    2.4700   12.8270 O   0  0  0  0  0  0  0  0  0  0  0  0
   12.7970   -2.2450   14.8990 C   0  0  0  0  0  0  0  0  0  0  0  0
   12.0300   -3.3080   15.4300 C   0  0  0  0  0  0  0  0  0  0  0  0
   12.5910   -3.8870   16.5120 C   0  0  0  0  0  0  0  0  0  0  0  0
   15.8010    1.8720   13.8860 C   0  0  0  0  0  0  0  0  0  0  0  0
   14.0580   -3.1530   16.9280 S   0  0  0  0  0  0  0  0  0  0  0  0
  8 12  1  0
 12  3  1  0
  5  3  1  0
  3  6  1  0
  3  4  1  0
 13 11  1  0
 13  1  1  0
  6  2  1  0
 11 10  2  0
  2  1  1  0
  1  9  2  0
 10  9  1  0
  9  7  1  0
M  END
>  <smiles>  (21) 
Cc1ccsc1CNC(C)(C)CO

>  <inchikey>  (21) 
IFQLAGXBYFTXBB-UHFFFAOYSA-N

>  <alias>  (21) 
7gpc-a

$$$$
7go0-a
     RDKit          3D

 13 14  0  0  0  0  0  0  0  0999 V2000
   14.3510   -1.9530   16.2190 C   0  0  0  0  0  0  0  0  0  0  0  0
   13.8480    3.2400   16.0770 C   0  0  0  0  0  0  0  0  0  0  0  0
   14.0150    1.7470   16.1100 C   0  0  0  0  0  0  0  0  0  0  0  0
   13.4210    1.1140   14.9220 N   0  0  0  0  0  0  0  0  0  0  0  0
   14.0390   -0.1350   14.4600 C   0  0  0  0  0  0  0  0  0  0  0  0
   13.5630   -1.3520   15.2130 C   0  0  0  0  0  0  0  0  0  0  0  0
   12.3250   -1.9240   14.9130 C   0  0  0  0  0  0  0  0  0  0  0  0
   11.8660   -3.0590   15.5680 C   0  0  0  0  0  0  0  0  0  0  0  0
   12.6280   -3.6660   16.5540 C   0  0  0  0  0  0  0  0  0  0  0  0
   13.8630   -3.1060   16.8690 C   0  0  0  0  0  0  0  0  0  0  0  0
   14.8160   -3.4930   17.7820 N   0  0  0  0  0  0  0  0  0  0  0  0
   15.8740   -2.6220   17.7230 C   0  0  0  0  0  0  0  0  0  0  0  0
   15.6400   -1.6680   16.7890 C   0  0  0  0  0  0  0  0  0  0  0  0
  2  3  1  0
  3  4  1  0
  4  5  1  0
  5  6  1  0
  7  6  2  0
  7  8  1  0
  6  1  1  0
  8  9  2  0
  1 10  2  0
  1 13  1  0
  9 10  1  0
 10 11  1  0
 13 12  2  0
 11 12  1  0
M  END
>  <smiles>  (22) 
CCNCc1cccc2[nH]ccc12

>  <inchikey>  (22) 
HIBJZFFYONQAOO-UHFFFAOYSA-N

>  <alias>  (22) 
7go0-a

$$$$
7go9-a
     RDKit          3D

 12 13  0  0  0  0  0  0  0  0999 V2000
   -8.7920   -4.7550    7.1160 N   0  0  0  0  0  0  0  0  0  0  0  0
   -5.2140    0.0000    7.7990 C   0  0  0  0  0  0  0  0  0  0  0  0
   -7.6850   -2.7920    7.1800 C   0  0  0  0  0  0  0  0  0  0  0  0
   -8.4590   -3.7290    7.8870 C   0  0  0  0  0  0  0  0  0  0  0  0
   -7.5740   -3.3330    5.9090 C   0  0  0  0  0  0  0  0  0  0  0  0
   -5.8190   -1.2620    7.3660 N   0  0  0  0  0  0  0  0  0  0  0  0
   -7.1130   -1.5190    7.6180 C   0  0  0  0  0  0  0  0  0  0  0  0
   -7.8390   -0.7310    8.2150 O   0  0  0  0  0  0  0  0  0  0  0  0
   -4.8280   -2.1180    6.6890 C   0  0  0  0  0  0  0  0  0  0  0  0
   -3.5560   -1.2870    6.7220 C   0  0  0  0  0  0  0  0  0  0  0  0
   -3.7440   -0.3340    7.8620 C   0  0  0  0  0  0  0  0  0  0  0  0
   -8.2430   -4.4870    5.9160 N   0  0  0  0  0  0  0  0  0  0  0  0
  8  7  2  0
  9 10  1  0
  9  6  1  0
  7  6  1  0
  7  3  1  0
  5  3  1  0
  5 12  2  0
 10 11  1  0
  6  2  1  0
  3  4  2  0
 12  1  1  0
 11  2  1  0
  4  1  1  0
M  END
>  <smiles>  (23) 
O=C(c1cn[nH]c1)N1CCCC1

>  <inchikey>  (23) 
ZCTYYKNBCKBIMR-UHFFFAOYSA-N

>  <alias>  (23) 
7go9-a

$$$$
7gqe-a
     RDKit          3D

 13 14  0  0  0  0  0  0  0  0999 V2000
   13.0100   -3.8330   15.9920 C   0  0  0  0  0  0  0  0  0  0  0  0
   13.9210   -2.9820   16.6220 C   0  0  0  0  0  0  0  0  0  0  0  0
   15.1630   -3.6360   17.1580 C   0  0  0  0  0  0  0  0  0  0  0  0
   17.4340   -4.4140   16.5580 C   0  0  0  0  0  0  0  0  0  0  0  0
   17.8700   -5.1740   15.3620 C   0  0  0  0  0  0  0  0  0  0  0  0
   16.2890   -3.5060   16.4310 N   0  0  0  0  0  0  0  0  0  0  0  0
   13.6120   -1.6030   16.6770 C   0  0  0  0  0  0  0  0  0  0  0  0
   14.4020   -0.7030   17.3310 O   0  0  0  0  0  0  0  0  0  0  0  0
   12.4470   -1.1230   16.0780 C   0  0  0  0  0  0  0  0  0  0  0  0
   11.5830   -1.9940   15.4350 C   0  0  0  0  0  0  0  0  0  0  0  0
   11.8580   -3.3380   15.3990 C   0  0  0  0  0  0  0  0  0  0  0  0
   17.2030   -5.8750   16.4860 C   0  0  0  0  0  0  0  0  0  0  0  0
   15.1270   -4.2850   18.2000 O   0  0  0  0  0  0  0  0  0  0  0  0
  8  7  1  0
  5  4  1  0
  5 12  1  0
  9  7  2  0
  9 10  1  0
  6  4  1  0
  6  3  1  0
  7  2  1  0
  4 12  1  0
 10 11  2  0
  2  3  1  0
  2  1  2  0
 11  1  1  0
  3 13  2  0
M  END
>  <smiles>  (24) 
O=C(NC1CC1)c1ccccc1O

>  <inchikey>  (24) 
UWYBOEZQGCFECQ-UHFFFAOYSA-N

>  <alias>  (24) 
7gqe-a

$$$$
7gqk-a
     RDKit          3D

 16 17  0  0  0  0  0  0  0  0999 V2000
   13.0050    3.2100   15.8760 C   0  0  0  0  0  0  0  0  0  0  0  0
   13.9030    3.7920   16.9560 C   0  0  0  0  0  0  0  0  0  0  0  0
   11.9520    0.9770   15.9750 C   0  0  0  0  0  0  0  0  0  0  0  0
   12.1020   -0.5130   16.0000 C   0  0  0  0  0  0  0  0  0  0  0  0
   11.4310   -1.3000   15.0640 C   0  0  0  0  0  0  0  0  0  0  0  0
   12.2810   -3.2910   16.0890 C   0  0  0  0  0  0  0  0  0  0  0  0
   13.0610    1.7430   15.8710 N   0  0  0  0  0  0  0  0  0  0  0  0
   16.2910    3.8670   17.8320 C   0  0  0  0  0  0  0  0  0  0  0  0
   15.5900    4.3610   18.9640 O   0  0  0  0  0  0  0  0  0  0  0  0
   15.3400    3.3100   16.7840 C   0  0  0  0  0  0  0  0  0  0  0  0
   12.9610   -2.5250   17.0090 C   0  0  0  0  0  0  0  0  0  0  0  0
   12.8750   -1.1420   16.9710 C   0  0  0  0  0  0  0  0  0  0  0  0
   15.3540    1.7860   16.7910 C   0  0  0  0  0  0  0  0  0  0  0  0
   14.4330    1.2380   15.7080 C   0  0  0  0  0  0  0  0  0  0  0  0
   11.5230   -2.6810   15.1130 C   0  0  0  0  0  0  0  0  0  0  0  0
   10.8330    1.4640   15.9980 O   0  0  0  0  0  0  0  0  0  0  0  0
  8 10  1  0
  8  9  1  0
 10  2  1  0
 10 13  1  0
  2  1  1  0
  1  7  1  0
 14 13  1  0
 14  7  1  0
  7  3  1  0
  3 16  2  0
  3  4  1  0
  4  5  2  0
  4 12  1  0
  5 15  1  0
 12 11  2  0
 15  6  2  0
 11  6  1  0
M  END
>  <smiles>  (25) 
O=C(c1ccccc1)N1CCC(CO)CC1

>  <inchikey>  (25) 
RLTIVBMLQJFUOB-UHFFFAOYSA-N

>  <alias>  (25) 
7gqk-a

$$$$
7gpa-a
     RDKit          3D

 12 12  0  0  0  0  0  0  0  0999 V2000
   11.6870   -3.0420   15.3630 C   0  0  0  0  0  0  0  0  0  0  0  0
   12.5290   -3.3170   16.4090 C   0  0  0  0  0  0  0  0  0  0  0  0
   13.4140   -2.4040   16.9140 C   0  0  0  0  0  0  0  0  0  0  0  0
   13.4160   -1.1280   16.3860 C   0  0  0  0  0  0  0  0  0  0  0  0
   10.9440    1.5710   13.6550 C   0  0  0  0  0  0  0  0  0  0  0  0
   10.5810    1.9260   12.4380 O   0  0  0  0  0  0  0  0  0  0  0  0
   12.3120    0.9420   13.7040 C   0  0  0  0  0  0  0  0  0  0  0  0
   12.5490   -0.8080   15.3600 C   0  0  0  0  0  0  0  0  0  0  0  0
   11.6990   -1.7670   14.8310 C   0  0  0  0  0  0  0  0  0  0  0  0
   12.4220   -4.5170   17.0310 F   0  0  0  0  0  0  0  0  0  0  0  0
   10.2710    1.7470   14.6620 O   0  0  0  0  0  0  0  0  0  0  0  0
   12.6140    0.5250   15.0430 O   0  0  0  0  0  0  0  0  0  0  0  0
  6  5  2  0
  7  5  1  0
  7 12  1  0
  5 11  1  0
 12  8  1  0
  8  4  2  0
  8  9  1  0
  4  3  1  0
  9  1  2  0
  3  2  2  0
  1  2  1  0
  2 10  1  0
M  END
>  <smiles>  (26) 
O=C(O)COc1ccc(F)cc1

>  <inchikey>  (26) 
ZBIULCVFFJJYTN-UHFFFAOYSA-N

>  <alias>  (26) 
7gpa-a

$$$$
7gpk-b
     RDKit          3D

 13 14  0  0  0  0  0  0  0  0999 V2000
   15.2030    1.7170   13.1750 C   0  0  0  0  0  0  0  0  0  0  0  0
   14.1140    2.7470   12.9700 C   0  0  0  0  0  0  0  0  0  0  0  0
   13.6310    3.2750   14.3020 C   0  0  0  0  0  0  0  0  0  0  0  0
   13.9670    2.3030   15.4150 C   0  0  0  0  0  0  0  0  0  0  0  0
   13.7310    0.0090   16.1270 C   0  0  0  0  0  0  0  0  0  0  0  0
   13.0090   -1.2780   15.8360 C   0  0  0  0  0  0  0  0  0  0  0  0
   13.3380   -2.5580   16.3590 C   0  0  0  0  0  0  0  0  0  0  0  0
   12.4950   -3.5220   15.9730 C   0  0  0  0  0  0  0  0  0  0  0  0
   11.9080   -1.3250   15.0380 C   0  0  0  0  0  0  0  0  0  0  0  0
   14.6720    0.5140   13.9550 C   0  0  0  0  0  0  0  0  0  0  0  0
   13.7030    0.9240   14.9910 N   0  0  0  0  0  0  0  0  0  0  0  0
   14.5750    3.8200   12.1510 O   0  0  0  0  0  0  0  0  0  0  0  0
   11.2880   -2.8900   14.9380 S   0  0  0  0  0  0  0  0  0  0  0  0
  2 12  1  0
  3  2  1  0
  4  3  1  0
 11  4  1  0
  6  5  1  0
  7  6  1  0
  8  7  2  0
 13  8  1  0
  9 13  1  0
  5 11  1  0
 10 11  1  0
  1 10  1  0
  2  1  1  0
  6  9  2  0
M  END
>  <smiles>  (27) 
OC1CCN(Cc2ccsc2)CC1

>  <inchikey>  (27) 
JQJVNJKLFUBEBG-UHFFFAOYSA-N

>  <alias>  (27) 
7gpk-b

$$$$
7gpk-a
     RDKit          3D

 13 14  0  0  0  0  0  0  0  0999 V2000
   -4.9440   -0.2230   33.5090 C   0  0  0  0  0  0  0  0  0  0  0  0
   -4.7000   -1.6960   33.7060 C   0  0  0  0  0  0  0  0  0  0  0  0
   -4.6170   -2.0090   35.1790 C   0  0  0  0  0  0  0  0  0  0  0  0
   -5.2290   -0.8850   36.0070 C   0  0  0  0  0  0  0  0  0  0  0  0
   -7.1680    0.5450   36.3250 C   0  0  0  0  0  0  0  0  0  0  0  0
   -8.4380    0.0600   36.9780 C   0  0  0  0  0  0  0  0  0  0  0  0
   -9.0250    0.6410   38.1460 C   0  0  0  0  0  0  0  0  0  0  0  0
  -10.1990    0.0410   38.5260 C   0  0  0  0  0  0  0  0  0  0  0  0
   -9.1870   -0.9790   36.4970 C   0  0  0  0  0  0  0  0  0  0  0  0
   -6.2790    0.1890   34.1130 C   0  0  0  0  0  0  0  0  0  0  0  0
   -6.5080   -0.4170   35.4350 N   0  0  0  0  0  0  0  0  0  0  0  0
   -5.7610   -2.4380   33.1170 O   0  0  0  0  0  0  0  0  0  0  0  0
  -10.5850   -1.2610   37.4330 S   0  0  0  0  0  0  0  0  0  0  0  0
  2 12  1  0
  3  2  1  0
  4  3  1  0
 11  4  1  0
  6  5  1  0
  7  6  1  0
  8  7  2  0
 13  8  1  0
  9 13  1  0
  5 11  1  0
 10 11  1  0
  1 10  1  0
  2  1  1  0
  6  9  2  0
M  END
>  <smiles>  (28) 
OC1CCN(Cc2ccsc2)CC1

>  <inchikey>  (28) 
JQJVNJKLFUBEBG-UHFFFAOYSA-N

>  <alias>  (28) 
7gpk-a

$$$$
7gpl-a
     RDKit          3D

 10 10  0  0  0  0  0  0  0  0999 V2000
  -11.6970  -24.5560   33.8650 N   0  0  0  0  0  0  0  0  0  0  0  0
  -10.7260  -25.0460   32.0270 C   0  0  0  0  0  0  0  0  0  0  0  0
  -12.3360  -23.8330   32.9420 C   0  0  0  0  0  0  0  0  0  0  0  0
  -10.7050  -25.3050   33.3300 N   0  0  0  0  0  0  0  0  0  0  0  0
  -11.3120  -24.8210   27.1190 C   0  0  0  0  0  0  0  0  0  0  0  0
  -11.4710  -24.1020   29.3930 O   0  0  0  0  0  0  0  0  0  0  0  0
  -12.0450  -23.9450   28.0570 C   0  0  0  0  0  0  0  0  0  0  0  0
  -12.1660  -23.5760   30.4140 C   0  0  0  0  0  0  0  0  0  0  0  0
  -11.7420  -24.1210   31.7200 C   0  0  0  0  0  0  0  0  0  0  0  0
  -13.0430  -22.7530   30.2820 O   0  0  0  0  0  0  0  0  0  0  0  0
  4  1  1  0
  4  2  2  0
  1  3  1  0
  2  9  1  0
  3  9  2  0
  9  8  1  0
  6  8  1  0
  6  7  1  0
  8 10  2  0
  7  5  1  0
M  END
>  <smiles>  (29) 
CCOC(=O)c1cn[nH]c1

>  <inchikey>  (29) 
KACZQOKEFKFNDB-UHFFFAOYSA-N

>  <alias>  (29) 
7gpl-a

$$$$
B0426a
     RDKit          3D

 22 24  0  0  0  0  0  0  0  0999 V2000
   -3.2830   -1.2090    8.0320 F   0  0  0  0  0  0  0  0  0  0  0  0
   -4.0190   -0.6470    7.0840 C   0  0  0  0  0  0  0  0  0  0  0  0
   -3.3700   -0.8240    5.9300 F   0  0  0  0  0  0  0  0  0  0  0  0
   -3.9660    0.6620    7.3430 F   0  0  0  0  0  0  0  0  0  0  0  0
   -5.4020   -1.2160    7.0220 C   0  0  0  0  0  0  0  0  0  0  0  0
   -6.4760   -0.5460    7.6020 C   0  0  0  0  0  0  0  0  0  0  0  0
   -7.7760   -1.0710    7.5120 C   0  0  0  0  0  0  0  0  0  0  0  0
   -7.9630   -2.2930    6.8480 C   0  0  0  0  0  0  0  0  0  0  0  0
   -6.8870   -2.9520    6.2810 C   0  0  0  0  0  0  0  0  0  0  0  0
   -5.6180   -2.4170    6.3640 C   0  0  0  0  0  0  0  0  0  0  0  0
   -8.8860   -0.3760    8.0520 N   0  0  0  0  0  0  0  0  0  0  0  0
  -10.1870   -0.7780    7.4990 C   0  0  0  0  0  0  0  0  0  0  0  0
  -11.3300   -0.2080    8.3020 C   0  0  0  0  0  0  0  0  0  0  0  0
  -11.2390    1.2460    8.3320 N   0  0  0  0  0  0  0  0  0  0  0  0
   -9.9970    1.6170    9.0120 C   0  0  0  0  0  0  0  0  0  0  0  0
   -8.7910    1.0770    8.2530 C   0  0  0  0  0  0  0  0  0  0  0  0
  -12.4090    1.8630    8.9640 C   0  0  0  0  0  0  0  0  0  0  0  0
  -13.4730    0.9260    9.4760 C   0  0  0  0  0  0  0  0  0  0  0  0
  -14.5590    0.4130    8.7640 C   0  0  0  0  0  0  0  0  0  0  0  0
  -15.3000   -0.2940    9.6220 N   0  0  0  0  0  0  0  0  0  0  0  0
  -14.7670   -0.2920   10.8630 N   0  0  0  0  0  0  0  0  0  0  0  0
  -13.6590    0.4370   10.7740 C   0  0  0  0  0  0  0  0  0  0  0  0
  3  2  1  0
  4  2  1  0
  2  1  1  0
  5  2  1  0
  5 10  2  0
 10  9  1  0
  9  8  2  0
  8  7  1  0
 11  7  1  0
 11 16  1  0
 16 15  1  0
 15 14  1  0
 17 14  1  0
 18 17  1  0
 18 22  1  0
 22 21  2  0
 21 20  1  0
 20 19  1  0
 19 18  2  0
 14 13  1  0
 13 12  1  0
 12 11  1  0
  7  6  2  0
  6  5  1  0
M  END
>  <smiles>  (30) 
FC(F)(F)c1cccc(N2CCN(Cc3cn[nH]c3)CC2)c1

>  <inchikey>  (30) 
DJYGXLQCAWWWIH-UHFFFAOYSA-N

>  <alias>  (30) 
B0426a

$$$$
B0450a
     RDKit          3D

 20 22  0  0  0  0  0  0  0  0999 V2000
   -1.5260   -7.6400   34.5750 N   0  0  0  0  0  0  0  0  0  0  0  0
   -1.3210   -7.6120   33.2510 C   0  0  0  0  0  0  0  0  0  0  0  0
   -1.9160   -8.3590   32.3280 N   0  0  0  0  0  0  0  0  0  0  0  0
   -1.4050   -7.9820   31.0890 N   0  0  0  0  0  0  0  0  0  0  0  0
   -0.4230   -6.7430   32.6670 N   0  0  0  0  0  0  0  0  0  0  0  0
   -0.5130   -7.0170   31.3060 C   0  0  0  0  0  0  0  0  0  0  0  0
    0.3190   -6.2830   30.4240 C   0  0  0  0  0  0  0  0  0  0  0  0
    1.1710   -5.3550   30.9310 C   0  0  0  0  0  0  0  0  0  0  0  0
    0.4450   -5.7930   33.1700 C   0  0  0  0  0  0  0  0  0  0  0  0
    1.2600   -5.0860   32.3450 C   0  0  0  0  0  0  0  0  0  0  0  0
    2.2490   -4.1200   32.8820 C   0  0  0  0  0  0  0  0  0  0  0  0
    2.4530   -2.8860   32.2660 C   0  0  0  0  0  0  0  0  0  0  0  0
    3.3870   -1.9910   32.7590 C   0  0  0  0  0  0  0  0  0  0  0  0
    2.9970   -4.4510   34.0090 C   0  0  0  0  0  0  0  0  0  0  0  0
    3.9380   -3.5690   34.5080 C   0  0  0  0  0  0  0  0  0  0  0  0
    4.7330   -3.8180   35.5930 O   0  0  0  0  0  0  0  0  0  0  0  0
    5.4020   -5.0790   35.6500 C   0  0  0  0  0  0  0  0  0  0  0  0
    4.1330   -2.3230   33.8800 C   0  0  0  0  0  0  0  0  0  0  0  0
    5.0690   -1.5100   34.4600 O   0  0  0  0  0  0  0  0  0  0  0  0
    6.2170   -1.1670   33.6830 C   0  0  0  0  0  0  0  0  0  0  0  0
 20 19  1  0
 19 18  1  0
 18 13  1  0
 13 12  2  0
 12 11  1  0
 11 10  1  0
 10  8  1  0
  8  7  2  0
  7  6  1  0
  6  4  2  0
  4  3  1  0
  3  2  2  0
  2  1  1  0
  5  2  1  0
  6  5  1  0
  9  5  1  0
 10  9  2  0
 14 11  2  0
 15 14  1  0
 18 15  2  0
 16 15  1  0
 17 16  1  0
M  END
>  <smiles>  (31) 
COc1ccc(-c2ccc3nnc(N)n3c2)cc1OC

>  <inchikey>  (31) 
WPZDOUWFJLYHBJ-UHFFFAOYSA-N

>  <alias>  (31) 
B0450a

$$$$
B0450b
     RDKit          3D

 20 22  0  0  0  0  0  0  0  0999 V2000
   -1.6790   -7.5360   34.6210 N   0  0  0  0  0  0  0  0  0  0  0  0
   -1.4300   -7.5130   33.3040 C   0  0  0  0  0  0  0  0  0  0  0  0
   -1.9260   -8.3210   32.3740 N   0  0  0  0  0  0  0  0  0  0  0  0
   -1.3720   -7.9350   31.1480 N   0  0  0  0  0  0  0  0  0  0  0  0
   -0.5800   -6.5910   32.7420 N   0  0  0  0  0  0  0  0  0  0  0  0
   -0.5660   -6.8980   31.3840 C   0  0  0  0  0  0  0  0  0  0  0  0
    0.2340   -6.0900   30.5320 C   0  0  0  0  0  0  0  0  0  0  0  0
    0.9440   -5.0580   31.0640 C   0  0  0  0  0  0  0  0  0  0  0  0
    0.1350   -5.5310   33.2650 C   0  0  0  0  0  0  0  0  0  0  0  0
    0.9040   -4.7400   32.4760 C   0  0  0  0  0  0  0  0  0  0  0  0
    1.6620   -3.5880   33.0460 C   0  0  0  0  0  0  0  0  0  0  0  0
    1.8840   -2.4290   32.3000 C   0  0  0  0  0  0  0  0  0  0  0  0
    2.5090   -1.3300   32.8630 C   0  0  0  0  0  0  0  0  0  0  0  0
    2.0990   -3.6370   34.3710 C   0  0  0  0  0  0  0  0  0  0  0  0
    2.7070   -2.5360   34.9490 C   0  0  0  0  0  0  0  0  0  0  0  0
    3.0990   -2.4640   36.2590 O   0  0  0  0  0  0  0  0  0  0  0  0
    4.1530   -3.3310   36.6800 C   0  0  0  0  0  0  0  0  0  0  0  0
    2.9190   -1.3710   34.1880 C   0  0  0  0  0  0  0  0  0  0  0  0
    3.5520   -0.3480   34.8390 O   0  0  0  0  0  0  0  0  0  0  0  0
    4.9790   -0.3700   34.8690 C   0  0  0  0  0  0  0  0  0  0  0  0
 20 19  1  0
 19 18  1  0
 18 13  1  0
 13 12  2  0
 12 11  1  0
 11 10  1  0
 10  8  1  0
  8  7  2  0
  7  6  1  0
  6  4  2  0
  4  3  1  0
  3  2  2  0
  2  1  1  0
  5  2  1  0
  6  5  1  0
  9  5  1  0
 10  9  2  0
 14 11  2  0
 15 14  1  0
 18 15  2  0
 16 15  1  0
 17 16  1  0
M  END
>  <smiles>  (32) 
COc1ccc(-c2ccc3nnc(N)n3c2)cc1OC

>  <inchikey>  (32) 
WPZDOUWFJLYHBJ-UHFFFAOYSA-N

>  <alias>  (32) 
B0450b

$$$$
B0454a
     RDKit          3D

 17 18  0  0  0  0  0  0  0  0999 V2000
   -1.6620   -4.1990   31.8530 O   0  0  0  0  0  0  0  0  0  0  0  0
   -0.5920   -4.0620   32.3960 C   0  0  0  0  0  0  0  0  0  0  0  0
    0.2330   -5.3070   32.7140 C   0  0  0  0  0  0  0  0  0  0  0  0
   -0.4700   -6.5150   32.2840 N   0  0  0  0  0  0  0  0  0  0  0  0
   -1.2400   -7.3280   33.0350 C   0  0  0  0  0  0  0  0  0  0  0  0
   -1.8130   -8.2420   32.2930 N   0  0  0  0  0  0  0  0  0  0  0  0
   -1.3990   -8.0140   30.9900 N   0  0  0  0  0  0  0  0  0  0  0  0
   -0.5970   -6.9850   31.0220 C   0  0  0  0  0  0  0  0  0  0  0  0
   -0.1360   -2.8360   32.7400 N   0  0  0  0  0  0  0  0  0  0  0  0
    1.0890   -2.5900   33.4840 C   0  0  0  0  0  0  0  0  0  0  0  0
   -0.9590   -1.6410   32.4380 C   0  0  0  0  0  0  0  0  0  0  0  0
   -0.8750   -1.1730   31.0020 C   0  0  0  0  0  0  0  0  0  0  0  0
   -0.3550    0.0790   30.7020 C   0  0  0  0  0  0  0  0  0  0  0  0
   -0.3140    0.5350   29.3960 C   0  0  0  0  0  0  0  0  0  0  0  0
   -0.7700   -0.2600   28.3690 C   0  0  0  0  0  0  0  0  0  0  0  0
   -1.2810   -1.5080   28.6480 C   0  0  0  0  0  0  0  0  0  0  0  0
   -1.3460   -1.9580   29.9560 C   0  0  0  0  0  0  0  0  0  0  0  0
 10  9  1  0
 11  9  1  0
 12 11  1  0
 12 17  2  0
 17 16  1  0
 16 15  2  0
 15 14  1  0
 14 13  2  0
 13 12  1  0
  9  2  1  0
  2  1  2  0
  3  2  1  0
  4  3  1  0
  4  8  1  0
  8  7  2  0
  7  6  1  0
  6  5  2  0
  5  4  1  0
M  END
>  <smiles>  (33) 
CN(Cc1ccccc1)C(=O)Cn1cnnc1

>  <inchikey>  (33) 
AVTXWKNPLMOCII-UHFFFAOYSA-N

>  <alias>  (33) 
B0454a

$$$$
B0454b
     RDKit          3D

 17 18  0  0  0  0  0  0  0  0999 V2000
   -1.4970   -4.2770   31.7960 O   0  0  0  0  0  0  0  0  0  0  0  0
   -0.4050   -4.2390   32.3450 C   0  0  0  0  0  0  0  0  0  0  0  0
    0.2550   -5.5350   32.8180 C   0  0  0  0  0  0  0  0  0  0  0  0
   -0.4680   -6.7000   32.3210 N   0  0  0  0  0  0  0  0  0  0  0  0
   -0.5970   -7.0930   31.0360 C   0  0  0  0  0  0  0  0  0  0  0  0
   -1.4190   -8.1010   30.9400 N   0  0  0  0  0  0  0  0  0  0  0  0
   -1.8390   -8.4000   32.2320 N   0  0  0  0  0  0  0  0  0  0  0  0
   -1.2440   -7.5490   33.0270 C   0  0  0  0  0  0  0  0  0  0  0  0
    0.2340   -3.0660   32.5620 N   0  0  0  0  0  0  0  0  0  0  0  0
    1.6080   -2.9260   33.0290 C   0  0  0  0  0  0  0  0  0  0  0  0
   -0.4800   -1.8040   32.2780 C   0  0  0  0  0  0  0  0  0  0  0  0
   -0.2840   -1.3300   30.8570 C   0  0  0  0  0  0  0  0  0  0  0  0
   -1.1140   -1.7750   29.8340 C   0  0  0  0  0  0  0  0  0  0  0  0
   -0.8800   -1.4010   28.5200 C   0  0  0  0  0  0  0  0  0  0  0  0
    0.1820   -0.5770   28.2120 C   0  0  0  0  0  0  0  0  0  0  0  0
    1.0030   -0.1170   29.2170 C   0  0  0  0  0  0  0  0  0  0  0  0
    0.7690   -0.4840   30.5340 C   0  0  0  0  0  0  0  0  0  0  0  0
 10  9  1  0
 11  9  1  0
 12 11  1  0
 12 17  2  0
 17 16  1  0
 16 15  2  0
 15 14  1  0
 14 13  2  0
 13 12  1  0
  9  2  1  0
  2  1  2  0
  3  2  1  0
  4  3  1  0
  4  8  1  0
  8  7  2  0
  7  6  1  0
  6  5  2  0
  5  4  1  0
M  END
>  <smiles>  (34) 
CN(Cc1ccccc1)C(=O)Cn1cnnc1

>  <inchikey>  (34) 
AVTXWKNPLMOCII-UHFFFAOYSA-N

>  <alias>  (34) 
B0454b

$$$$
B0469a
     RDKit          3D

 20 22  0  0  0  0  0  0  0  0999 V2000
  -19.0300   -4.1520   13.8520 O   0  0  0  0  0  0  0  0  0  0  0  0
  -19.8100   -3.4640   14.5130 C   0  0  0  0  0  0  0  0  0  0  0  0
  -19.6030   -2.0840   14.8800 C   0  0  0  0  0  0  0  0  0  0  0  0
  -20.5530   -1.4000   15.5530 C   0  0  0  0  0  0  0  0  0  0  0  0
  -20.9930   -4.0150   14.9240 N   0  0  0  0  0  0  0  0  0  0  0  0
  -21.9590   -3.3420   15.6000 C   0  0  0  0  0  0  0  0  0  0  0  0
  -21.7780   -2.0350   15.9000 C   0  0  0  0  0  0  0  0  0  0  0  0
  -22.8670   -1.3280   16.4380 N   0  0  0  0  0  0  0  0  0  0  0  0
  -23.7310   -0.6370   15.6390 C   0  0  0  0  0  0  0  0  0  0  0  0
  -23.6110   -0.5780   14.4160 O   0  0  0  0  0  0  0  0  0  0  0  0
  -24.8790    0.0330   16.3680 C   0  0  0  0  0  0  0  0  0  0  0  0
  -26.1150   -0.8130   16.1710 C   0  0  0  0  0  0  0  0  0  0  0  0
  -26.2250   -2.0790   16.7480 C   0  0  0  0  0  0  0  0  0  0  0  0
  -25.6060   -2.5250   17.8940 O   0  0  0  0  0  0  0  0  0  0  0  0
  -26.1500   -3.8340   18.1190 C   0  0  0  0  0  0  0  0  0  0  0  0
  -27.2080   -4.0550   17.1730 O   0  0  0  0  0  0  0  0  0  0  0  0
  -27.3020   -2.8830   16.4550 C   0  0  0  0  0  0  0  0  0  0  0  0
  -28.3020   -2.4800   15.5850 C   0  0  0  0  0  0  0  0  0  0  0  0
  -28.2120   -1.2140   15.0250 C   0  0  0  0  0  0  0  0  0  0  0  0
  -27.1340   -0.3910   15.3180 C   0  0  0  0  0  0  0  0  0  0  0  0
 10  9  2  0
 11  9  1  0
 12 11  1  0
 12 20  2  0
 20 19  1  0
 19 18  2  0
 18 17  1  0
 17 13  2  0
 13 12  1  0
 14 13  1  0
 15 14  1  0
 16 15  1  0
 17 16  1  0
  9  8  1  0
  8  7  1  0
  7  4  1  0
  4  3  2  0
  3  2  1  0
  2  1  2  0
  5  2  1  0
  6  5  1  0
  7  6  2  0
M  END
>  <smiles>  (35) 
O=C(Cc1cccc2c1OCO2)Nc1ccc(=O)[nH]c1

>  <inchikey>  (35) 
GPZUHDXFXQPQFB-UHFFFAOYSA-N

>  <alias>  (35) 
B0469a

$$$$
B0495a
     RDKit          3D

 18 19  0  0  0  0  0  0  0  0999 V2000
  -13.1540  -37.6410   31.9290 Br  0  0  0  0  0  0  0  0  0  0  0  0
  -13.8160  -36.3010   33.0530 C   0  0  0  0  0  0  0  0  0  0  0  0
  -13.8340  -36.4320   34.3730 N   0  0  0  0  0  0  0  0  0  0  0  0
  -14.3840  -35.2370   34.8660 O   0  0  0  0  0  0  0  0  0  0  0  0
  -14.6710  -34.4390   33.8280 C   0  0  0  0  0  0  0  0  0  0  0  0
  -14.3530  -35.0130   32.6520 C   0  0  0  0  0  0  0  0  0  0  0  0
  -14.4720  -34.4790   31.2480 C   0  0  0  0  0  0  0  0  0  0  0  0
  -14.4940  -33.0160   31.1560 N   0  0  0  0  0  0  0  0  0  0  0  0
  -13.3090  -32.3760   31.7510 C   0  0  0  0  0  0  0  0  0  0  0  0
  -12.6210  -31.6050   30.6370 C   0  0  0  0  0  0  0  0  0  0  0  0
  -14.5480  -32.4960   29.7810 C   0  0  0  0  0  0  0  0  0  0  0  0
  -13.0730  -32.3390   29.3750 C   0  0  1  0  0  0  0  0  0  0  0  0
  -12.6870  -31.4900   27.8460 S   0  0  0  0  0  0  0  0  0  0  0  0
  -11.6450  -32.2330   27.2010 O   0  0  0  0  0  0  0  0  0  0  0  0
  -12.4690  -30.1090   28.1570 O   0  0  0  0  0  0  0  0  0  0  0  0
  -14.0290  -31.5680   26.8620 N   0  0  0  0  0  0  0  0  0  0  0  0
  -14.6990  -30.3410   26.4160 C   0  0  0  0  0  0  0  0  0  0  0  0
  -14.2070  -32.7150   25.9660 C   0  0  0  0  0  0  0  0  0  0  0  0
 18 16  1  0
 17 16  1  0
 16 13  1  0
 14 13  2  0
 15 13  2  0
 12 13  1  6
 12 10  1  0
 10  9  1  0
  9  8  1  0
  8  7  1  0
  7  6  1  0
  6  5  2  0
  5  4  1  0
  4  3  1  0
  3  2  2  0
  6  2  1  0
  2  1  1  0
 11  8  1  0
 12 11  1  0
M  END
>  <smiles>  (36) 
CN(C)S(=O)(=O)[C@H]1CCN(Cc2conc2Br)C1

>  <inchikey>  (36) 
UAILPSBZZNOEFZ-VIFPVBQESA-N

>  <alias>  (36) 
B0495a

$$$$
B0517a
     RDKit          3D

 19 20  0  0  0  0  0  0  0  0999 V2000
   -0.6870   -6.7860   35.6590 O   0  0  0  0  0  0  0  0  0  0  0  0
   -0.5650   -6.7140   34.4420 C   0  0  0  0  0  0  0  0  0  0  0  0
   -1.3540   -7.4450   33.5840 N   0  0  0  0  0  0  0  0  0  0  0  0
   -1.2920   -7.4460   32.1950 C   0  0  0  0  0  0  0  0  0  0  0  0
   -2.0540   -8.1810   31.5430 O   0  0  0  0  0  0  0  0  0  0  0  0
   -0.3010   -6.5710   31.6400 C   0  0  0  0  0  0  0  0  0  0  0  0
    0.4790   -5.8450   32.4600 C   0  0  0  0  0  0  0  0  0  0  0  0
    0.3700   -5.9040   33.8280 N   0  0  0  0  0  0  0  0  0  0  0  0
    1.2790   -5.1260   34.6650 C   0  0  0  0  0  0  0  0  0  0  0  0
    2.3840   -6.0100   35.2180 C   0  0  0  0  0  0  0  0  0  0  0  0
    2.6880   -7.0690   34.6680 O   0  0  0  0  0  0  0  0  0  0  0  0
    2.9740   -5.5550   36.3250 N   0  0  0  0  0  0  0  0  0  0  0  0
    3.7720   -6.3990   37.2060 C   0  0  0  0  0  0  0  0  0  0  0  0
    3.0130   -6.9730   38.3790 C   0  0  0  0  0  0  0  0  0  0  0  0
    1.6290   -7.0990   38.3530 C   0  0  0  0  0  0  0  0  0  0  0  0
    0.9450   -7.6410   39.4290 C   0  0  0  0  0  0  0  0  0  0  0  0
    1.6330   -8.0600   40.5480 C   0  0  0  0  0  0  0  0  0  0  0  0
    3.0060   -7.9400   40.5880 C   0  0  0  0  0  0  0  0  0  0  0  0
    3.6920   -7.4000   39.5120 C   0  0  0  0  0  0  0  0  0  0  0  0
 11 10  2  0
 10  9  1  0
  9  8  1  0
  8  7  1  0
  7  6  2  0
  6  4  1  0
  5  4  2  0
  4  3  1  0
  3  2  1  0
  8  2  1  0
  2  1  2  0
 12 10  1  0
 13 12  1  0
 14 13  1  0
 14 19  2  0
 19 18  1  0
 18 17  2  0
 17 16  1  0
 16 15  2  0
 15 14  1  0
M  END
>  <smiles>  (37) 
O=C(Cn1ccc(=O)[nH]c1=O)NCc1ccccc1

>  <inchikey>  (37) 
QYWZZQOITPPOQW-UHFFFAOYSA-N

>  <alias>  (37) 
B0517a

$$$$
B0525a
     RDKit          3D

 22 24  0  0  0  0  0  0  0  0999 V2000
   -1.4560   -4.1850   31.8380 O   0  0  0  0  0  0  0  0  0  0  0  0
   -0.2440   -4.2140   31.9860 C   0  0  0  0  0  0  0  0  0  0  0  0
    0.4400   -5.4840   32.4920 C   0  0  0  0  0  0  0  0  0  0  0  0
   -0.3610   -6.6630   32.1840 N   0  0  0  0  0  0  0  0  0  0  0  0
   -1.0810   -7.4110   33.0440 C   0  0  0  0  0  0  0  0  0  0  0  0
   -1.7500   -8.3340   32.4050 N   0  0  0  0  0  0  0  0  0  0  0  0
   -1.4450   -8.1850   31.0540 N   0  0  0  0  0  0  0  0  0  0  0  0
   -0.6120   -7.1850   30.9650 C   0  0  0  0  0  0  0  0  0  0  0  0
    0.5410   -3.1560   31.6870 N   0  0  0  0  0  0  0  0  0  0  0  0
   -0.0270   -1.9490   31.0860 C   0  0  0  0  0  0  0  0  0  0  0  0
    0.4650   -1.8700   29.6410 C   0  0  2  0  0  0  0  0  0  0  0  0
    1.9920   -1.7510   29.6320 C   0  0  0  0  0  0  0  0  0  0  0  0
    2.6410   -2.8870   30.4280 C   0  0  0  0  0  0  0  0  0  0  0  0
    2.0010   -3.0400   31.8030 C   0  0  0  0  0  0  0  0  0  0  0  0
   -0.2690   -0.8150   28.8320 C   0  0  0  0  0  0  0  0  0  0  0  0
    0.1120    0.5200   28.8320 C   0  0  0  0  0  0  0  0  0  0  0  0
   -0.6080    1.4680   28.1250 C   0  0  0  0  0  0  0  0  0  0  0  0
   -1.7300    1.1110   27.3890 C   0  0  0  0  0  0  0  0  0  0  0  0
   -2.5480    2.1430   26.6500 C   0  0  0  0  0  0  0  0  0  0  0  0
   -1.7800    3.2800   26.2610 O   0  0  0  0  0  0  0  0  0  0  0  0
   -2.1000   -0.2260   27.3740 C   0  0  0  0  0  0  0  0  0  0  0  0
   -1.3860   -1.1710   28.0880 C   0  0  0  0  0  0  0  0  0  0  0  0
  2  1  2  0
  3  2  1  0
  4  3  1  0
  4  8  1  0
  8  7  2  0
  7  6  1  0
  6  5  2  0
  5  4  1  0
  9  2  1  0
  9 14  1  0
 14 13  1  0
 13 12  1  0
 12 11  1  0
 11 15  1  1
 15 22  2  0
 22 21  1  0
 21 18  2  0
 19 18  1  0
 20 19  1  0
 18 17  1  0
 17 16  2  0
 16 15  1  0
 11 10  1  0
 10  9  1  0
M  END
>  <smiles>  (38) 
O=C(Cn1cnnc1)N1CCC[C@H](c2ccc(CO)cc2)C1

>  <inchikey>  (38) 
QDVBRKQJPHDTEK-HNNXBMFYSA-N

>  <alias>  (38) 
B0525a

$$$$
B0525b
     RDKit          3D

 22 24  0  0  0  0  0  0  0  0999 V2000
   -1.6740   -4.2090   31.7740 O   0  0  0  0  0  0  0  0  0  0  0  0
   -0.4770   -4.2380   31.9900 C   0  0  0  0  0  0  0  0  0  0  0  0
    0.1550   -5.4440   32.6820 C   0  0  0  0  0  0  0  0  0  0  0  0
   -0.5200   -6.6770   32.2890 N   0  0  0  0  0  0  0  0  0  0  0  0
   -0.5930   -7.2110   31.0530 C   0  0  0  0  0  0  0  0  0  0  0  0
   -1.3580   -8.2690   31.0500 N   0  0  0  0  0  0  0  0  0  0  0  0
   -1.8030   -8.4420   32.3560 N   0  0  0  0  0  0  0  0  0  0  0  0
   -1.2780   -7.4770   33.0630 C   0  0  0  0  0  0  0  0  0  0  0  0
    0.3430   -3.2400   31.6010 N   0  0  0  0  0  0  0  0  0  0  0  0
   -0.2230   -2.0030   31.0610 C   0  0  0  0  0  0  0  0  0  0  0  0
    0.2330   -1.8820   29.6090 C   0  0  2  0  0  0  0  0  0  0  0  0
    1.7550   -1.7230   29.5620 C   0  0  0  0  0  0  0  0  0  0  0  0
    2.3920   -2.0190   30.9190 C   0  0  0  0  0  0  0  0  0  0  0  0
    1.8120   -3.2770   31.5570 C   0  0  0  0  0  0  0  0  0  0  0  0
   -0.5280   -0.7990   28.8700 C   0  0  0  0  0  0  0  0  0  0  0  0
   -1.4390   -1.1330   27.8810 C   0  0  0  0  0  0  0  0  0  0  0  0
   -2.1220   -0.1570   27.1810 C   0  0  0  0  0  0  0  0  0  0  0  0
   -1.9320    1.1860   27.4610 C   0  0  0  0  0  0  0  0  0  0  0  0
   -2.6890    2.2360   26.6880 C   0  0  0  0  0  0  0  0  0  0  0  0
   -2.0360    3.4980   26.6980 O   0  0  0  0  0  0  0  0  0  0  0  0
   -1.0330    1.5220   28.4610 C   0  0  0  0  0  0  0  0  0  0  0  0
   -0.3400    0.5450   29.1530 C   0  0  0  0  0  0  0  0  0  0  0  0
  2  1  2  0
  3  2  1  0
  4  3  1  0
  4  8  1  0
  8  7  2  0
  7  6  1  0
  6  5  2  0
  5  4  1  0
  9  2  1  0
  9 14  1  0
 14 13  1  0
 13 12  1  0
 12 11  1  0
 11 15  1  1
 15 22  2  0
 22 21  1  0
 21 18  2  0
 19 18  1  0
 20 19  1  0
 18 17  1  0
 17 16  2  0
 16 15  1  0
 11 10  1  0
 10  9  1  0
M  END
>  <smiles>  (39) 
O=C(Cn1cnnc1)N1CCC[C@H](c2ccc(CO)cc2)C1

>  <inchikey>  (39) 
QDVBRKQJPHDTEK-HNNXBMFYSA-N

>  <alias>  (39) 
B0525b

$$$$
B0693a
     RDKit          3D

 19 21  0  0  0  0  0  0  0  0999 V2000
   17.4940   -3.0830   17.8160 O   0  0  0  0  0  0  0  0  0  0  0  0
   17.3140   -2.0280   17.2140 C   0  0  0  0  0  0  0  0  0  0  0  0
   18.4550   -1.0550   16.9970 C   0  0  0  0  0  0  0  0  0  0  0  0
   19.0720   -1.2150   15.6030 C   0  0  0  0  0  0  0  0  0  0  0  0
   19.3110   -0.1810   14.7750 N   0  0  0  0  0  0  0  0  0  0  0  0
   19.8690   -0.6060   13.6070 N   0  0  0  0  0  0  0  0  0  0  0  0
   19.9730   -1.9230   13.7260 C   0  0  0  0  0  0  0  0  0  0  0  0
   19.4820   -2.3530   14.9560 C   0  0  0  0  0  0  0  0  0  0  0  0
   16.1210   -1.6420   16.6960 N   0  0  0  0  0  0  0  0  0  0  0  0
   14.9000   -2.3670   16.6170 C   0  0  0  0  0  0  0  0  0  0  0  0
   14.0730   -2.1740   15.4900 C   0  0  0  0  0  0  0  0  0  0  0  0
   14.5210   -1.2830   14.3520 C   0  0  0  0  0  0  0  0  0  0  0  0
   13.6630   -1.4840   13.1250 C   0  0  0  0  0  0  0  0  0  0  0  0
   12.2360   -1.4840   13.4620 N   0  0  0  0  0  0  0  0  0  0  0  0
   11.9040   -2.6540   14.2750 C   0  0  0  0  0  0  0  0  0  0  0  0
   12.8300   -2.8240   15.4520 C   0  0  0  0  0  0  0  0  0  0  0  0
   12.4430   -3.6380   16.5140 C   0  0  0  0  0  0  0  0  0  0  0  0
   13.2710   -3.8260   17.6050 C   0  0  0  0  0  0  0  0  0  0  0  0
   14.5030   -3.1980   17.6640 C   0  0  0  0  0  0  0  0  0  0  0  0
  2  1  2  0
  3  2  1  0
  4  3  1  0
  4  8  2  0
  8  7  1  0
  7  6  2  0
  6  5  1  0
  5  4  1  0
  9  2  1  0
 10  9  1  0
 10 19  1  0
 19 18  2  0
 18 17  1  0
 17 16  2  0
 16 11  1  0
 11 10  2  0
 12 11  1  0
 13 12  1  0
 14 13  1  0
 15 14  1  0
 16 15  1  0
M  END
>  <smiles>  (40) 
O=C(Cc1ccn[nH]1)Nc1cccc2c1CCNC2

>  <inchikey>  (40) 
XMHWMSYQYNZKGG-UHFFFAOYSA-N

>  <alias>  (40) 
B0693a

$$$$
B0931a
     RDKit          3D

 17 19  0  0  0  0  0  0  0  0999 V2000
    0.6700   -5.7350   31.1840 C   0  0  0  0  0  0  0  0  0  0  0  0
    1.3360   -5.0850   32.1850 C   0  0  0  0  0  0  0  0  0  0  0  0
   -0.2940   -6.7220   31.5160 C   0  0  0  0  0  0  0  0  0  0  0  0
   -1.0730   -7.5060   30.7780 N   0  0  0  0  0  0  0  0  0  0  0  0
   -1.8360   -8.2790   31.6530 N   0  0  0  0  0  0  0  0  0  0  0  0
   -1.4980   -7.9500   32.8690 C   0  0  0  0  0  0  0  0  0  0  0  0
   -0.5300   -6.9850   32.8610 N   0  0  0  0  0  0  0  0  0  0  0  0
    0.1700   -6.3280   33.8790 C   0  0  0  0  0  0  0  0  0  0  0  0
    1.0880   -5.3860   33.5440 C   0  0  0  0  0  0  0  0  0  0  0  0
   -0.1950   -6.8350   35.5170 S   0  0  0  0  0  0  0  0  0  0  0  0
    1.0230   -6.0070   36.5900 C   0  0  0  0  0  0  0  0  0  0  0  0
    0.7160   -6.4140   38.0040 C   0  0  0  0  0  0  0  0  0  0  0  0
    0.2580   -5.4930   38.9300 C   0  0  0  0  0  0  0  0  0  0  0  0
   -0.0240   -5.9110   40.2160 C   0  0  0  0  0  0  0  0  0  0  0  0
    0.1100   -7.1770   40.6300 N   0  0  0  0  0  0  0  0  0  0  0  0
    0.5580   -8.0580   39.7280 C   0  0  0  0  0  0  0  0  0  0  0  0
    0.8710   -7.7250   38.4240 C   0  0  0  0  0  0  0  0  0  0  0  0
  2  9  1  0
  9  8  2  0
 10  8  1  0
 11 10  1  0
 12 11  1  0
 12 17  2  0
 17 16  1  0
 16 15  2  0
 15 14  1  0
 14 13  2  0
 13 12  1  0
  8  7  1  0
  7  6  1  0
  6  5  2  0
  5  4  1  0
  4  3  2  0
  7  3  1  0
  3  1  1  0
  2  1  2  0
M  END
>  <smiles>  (41) 
c1cc(SCc2ccncc2)n2cnnc2c1

>  <inchikey>  (41) 
YKUFZDVJLQYFAS-UHFFFAOYSA-N

>  <alias>  (41) 
B0931a

$$$$
B0931b
     RDKit          3D

 17 19  0  0  0  0  0  0  0  0999 V2000
    0.0840   -6.2770   30.6450 C   0  0  0  0  0  0  0  0  0  0  0  0
    0.8080   -5.3770   31.3570 C   0  0  0  0  0  0  0  0  0  0  0  0
   -0.7690   -7.1720   31.3270 C   0  0  0  0  0  0  0  0  0  0  0  0
   -1.6000   -8.1110   30.9060 N   0  0  0  0  0  0  0  0  0  0  0  0
   -2.2100   -8.6610   32.0310 N   0  0  0  0  0  0  0  0  0  0  0  0
   -1.7340   -8.0520   33.0780 C   0  0  0  0  0  0  0  0  0  0  0  0
   -0.8230   -7.1050   32.7150 N   0  0  0  0  0  0  0  0  0  0  0  0
   -0.0690   -6.1970   33.4500 C   0  0  0  0  0  0  0  0  0  0  0  0
    0.7240   -5.3370   32.7600 C   0  0  0  0  0  0  0  0  0  0  0  0
   -0.2080   -6.2850   35.1970 S   0  0  0  0  0  0  0  0  0  0  0  0
    0.5700   -4.7270   35.7370 C   0  0  0  0  0  0  0  0  0  0  0  0
    2.0480   -4.7440   35.4450 C   0  0  0  0  0  0  0  0  0  0  0  0
    2.8200   -5.8580   35.7190 C   0  0  0  0  0  0  0  0  0  0  0  0
    4.1420   -5.8820   35.3130 C   0  0  0  0  0  0  0  0  0  0  0  0
    4.7390   -4.8690   34.6800 N   0  0  0  0  0  0  0  0  0  0  0  0
    3.9920   -3.7850   34.4440 C   0  0  0  0  0  0  0  0  0  0  0  0
    2.6620   -3.6800   34.8060 C   0  0  0  0  0  0  0  0  0  0  0  0
  2  9  1  0
  9  8  2  0
 10  8  1  0
 11 10  1  0
 12 11  1  0
 12 17  2  0
 17 16  1  0
 16 15  2  0
 15 14  1  0
 14 13  2  0
 13 12  1  0
  8  7  1  0
  7  6  1  0
  6  5  2  0
  5  4  1  0
  4  3  2  0
  7  3  1  0
  3  1  1  0
  2  1  2  0
M  END
>  <smiles>  (42) 
c1cc(SCc2ccncc2)n2cnnc2c1

>  <inchikey>  (42) 
YKUFZDVJLQYFAS-UHFFFAOYSA-N

>  <alias>  (42) 
B0931b

$$$$
B1157a
     RDKit          3D

 15 16  0  0  0  0  0  0  0  0999 V2000
  -20.0750   -1.5280   15.9270 Cl  0  0  0  0  0  0  0  0  0  0  0  0
  -20.1710   -2.3620   17.4840 C   0  0  0  0  0  0  0  0  0  0  0  0
  -21.5710   -2.7000   17.9370 C   0  0  0  0  0  0  0  0  0  0  0  0
  -21.8690   -3.8680   18.1760 O   0  0  0  0  0  0  0  0  0  0  0  0
  -22.4250   -1.6900   18.0690 N   0  0  0  0  0  0  0  0  0  0  0  0
  -23.6380   -1.8040   18.8630 C   0  0  0  0  0  0  0  0  0  0  0  0
  -24.8120   -2.3240   18.0720 C   0  0  0  0  0  0  0  0  0  0  0  0
  -25.4280   -1.4280   17.2670 N   0  0  0  0  0  0  0  0  0  0  0  0
  -26.4710   -1.8890   16.5700 C   0  0  0  0  0  0  0  0  0  0  0  0
  -27.2480   -1.1580   15.7130 N   0  0  0  0  0  0  0  0  0  0  0  0
  -28.2290   -1.9830   15.2190 C   0  0  0  0  0  0  0  0  0  0  0  0
  -28.0980   -3.2340   15.7300 C   0  0  0  0  0  0  0  0  0  0  0  0
  -26.9780   -3.2110   16.6050 C   0  0  0  0  0  0  0  0  0  0  0  0
  -26.3090   -4.1030   17.4400 C   0  0  0  0  0  0  0  0  0  0  0  0
  -25.2210   -3.6640   18.1760 C   0  0  0  0  0  0  0  0  0  0  0  0
  4  3  2  0
  3  2  1  0
  2  1  1  0
  5  3  1  0
  6  5  1  0
  7  6  1  0
  7 15  2  0
 15 14  1  0
 14 13  2  0
 13 12  1  0
 12 11  2  0
 11 10  1  0
 10  9  1  0
 13  9  1  0
  9  8  2  0
  8  7  1  0
M  END
>  <smiles>  (43) 
O=C(CCl)NCc1ccc2cc[nH]c2n1

>  <inchikey>  (43) 
HYEXAGWRPRSNAB-UHFFFAOYSA-N

>  <alias>  (43) 
B1157a

$$$$
B1159b
     RDKit          3D

 19 21  0  0  0  0  0  0  0  0999 V2000
  -19.7550   -2.1950   21.1890 Cl  0  0  0  0  0  0  0  0  0  0  0  0
  -19.4070   -2.7780   19.5560 C   0  0  0  0  0  0  0  0  0  0  0  0
  -20.4720   -2.4750   18.5270 C   0  0  0  0  0  0  0  0  0  0  0  0
  -20.5740   -3.2120   17.5520 O   0  0  0  0  0  0  0  0  0  0  0  0
  -21.2610   -1.4100   18.7310 N   0  0  0  0  0  0  0  0  0  0  0  0
  -22.1500   -0.9230   17.6750 C   0  0  0  0  0  0  0  0  0  0  0  0
  -21.4310   -0.5780   16.3460 C   0  0  0  0  0  0  0  0  0  0  0  0
  -22.1470    0.7760   16.3360 C   0  0  0  0  0  0  0  0  0  0  0  0
  -22.5640    0.5650   17.7980 C   0  0  0  0  0  0  0  0  0  0  0  0
  -23.3080   -1.9190   17.5070 C   0  0  0  0  0  0  0  0  0  0  0  0
  -24.2770   -1.8540   16.5230 N   0  0  0  0  0  0  0  0  0  0  0  0
  -25.0330   -2.9330   16.7330 C   0  0  0  0  0  0  0  0  0  0  0  0
  -24.5720   -3.6290   17.7770 N   0  0  0  0  0  0  0  0  0  0  0  0
  -23.4780   -3.0170   18.3060 N   0  0  0  0  0  0  0  0  0  0  0  0
  -26.2170   -3.2780   15.9680 C   0  0  0  0  0  0  0  0  0  0  0  0
  -27.1780   -4.6140   16.4440 S   0  0  0  0  0  0  0  0  0  0  0  0
  -28.3140   -4.3210   15.1960 C   0  0  0  0  0  0  0  0  0  0  0  0
  -27.9890   -3.2580   14.4360 C   0  0  0  0  0  0  0  0  0  0  0  0
  -26.7710   -2.6350   14.8580 C   0  0  0  0  0  0  0  0  0  0  0  0
  4  3  2  0
  3  2  1  0
  2  1  1  0
  5  3  1  0
  6  5  1  0
 10  6  1  0
 10 14  2  0
 14 13  1  0
 13 12  1  0
 15 12  1  0
 15 19  2  0
 19 18  1  0
 18 17  2  0
 17 16  1  0
 16 15  1  0
 12 11  2  0
 11 10  1  0
  6  9  1  0
  9  8  1  0
  8  7  1  0
  7  6  1  0
M  END
>  <smiles>  (44) 
O=C(CCl)NC1(c2n[nH]c(-c3cccs3)n2)CCC1

>  <inchikey>  (44) 
PUOLCIOKQSWQPF-UHFFFAOYSA-N

>  <alias>  (44) 
B1159b

$$$$
B1169b
     RDKit          3D

 13 14  0  0  0  0  0  0  0  0999 V2000
  -17.5570  -19.8170    9.3750 Cl  0  0  0  0  0  0  0  0  0  0  0  0
  -17.7770  -19.1500   11.0060 C   0  0  0  0  0  0  0  0  0  0  0  0
  -19.1860  -18.6240   11.2230 C   0  0  0  0  0  0  0  0  0  0  0  0
  -20.0810  -18.8890   10.4340 O   0  0  0  0  0  0  0  0  0  0  0  0
  -19.4230  -17.9130   12.3430 N   0  0  0  0  0  0  0  0  0  0  0  0
  -20.7980  -17.4930   12.6350 C   0  0  0  0  0  0  0  0  0  0  0  0
  -20.8540  -16.2220   13.4470 C   0  0  0  0  0  0  0  0  0  0  0  0
  -22.0440  -15.5690   13.8880 C   0  0  0  0  0  0  0  0  0  0  0  0
  -21.7840  -14.4680   14.6220 C   0  0  0  0  0  0  0  0  0  0  0  0
  -20.1010  -14.1880   14.7810 S   0  0  0  0  0  0  0  0  0  0  0  0
  -19.7240  -15.5850   13.8500 C   0  0  0  0  0  0  0  0  0  0  0  0
  -18.3330  -16.0550   13.5540 C   0  0  0  0  0  0  0  0  0  0  0  0
  -18.3800  -17.5590   13.3170 C   0  0  0  0  0  0  0  0  0  0  0  0
  4  3  2  0
  3  2  1  0
  2  1  1  0
  5  3  1  0
  5 13  1  0
 13 12  1  0
 12 11  1  0
 11 10  1  0
 10  9  1  0
  9  8  2  0
  8  7  1  0
 11  7  2  0
  7  6  1  0
  6  5  1  0
M  END
>  <smiles>  (45) 
O=C(CCl)N1CCc2sccc2C1

>  <inchikey>  (45) 
QSRTWFRGDFZQPO-UHFFFAOYSA-N

>  <alias>  (45) 
B1169b

$$$$
B1396a
     RDKit          3D

 20 21  0  0  0  0  0  0  0  0999 V2000
   17.5600   -3.6920   18.2460 O   0  0  0  0  0  0  0  0  0  0  0  0
   18.2890   -2.4610   18.0850 S   0  0  0  0  0  0  0  0  0  0  0  0
   19.4530   -2.2460   18.9170 O   0  0  0  0  0  0  0  0  0  0  0  0
   18.7500   -2.3020   16.3910 C   0  0  0  0  0  0  0  0  0  0  0  0
   18.2050   -3.1640   15.4510 C   0  0  0  0  0  0  0  0  0  0  0  0
   18.5500   -3.0110   14.1140 C   0  0  0  0  0  0  0  0  0  0  0  0
   19.4240   -2.0110   13.7260 C   0  0  0  0  0  0  0  0  0  0  0  0
   19.9550   -1.1590   14.6710 C   0  0  0  0  0  0  0  0  0  0  0  0
   19.6220   -1.2960   16.0110 C   0  0  0  0  0  0  0  0  0  0  0  0
   17.1590   -1.1120   18.3860 C   0  0  0  0  0  0  0  0  0  0  0  0
   16.0590   -1.0520   17.3450 C   0  0  0  0  0  0  0  0  0  0  0  0
   16.1860   -0.4040   16.3070 O   0  0  0  0  0  0  0  0  0  0  0  0
   14.9510   -1.7560   17.6730 N   0  0  0  0  0  0  0  0  0  0  0  0
   13.7900   -1.8970   16.8870 C   0  0  0  0  0  0  0  0  0  0  0  0
   13.1710   -3.1530   16.8170 C   0  0  0  0  0  0  0  0  0  0  0  0
   13.7440   -4.3590   17.5170 C   0  0  0  0  0  0  0  0  0  0  0  0
   13.2580   -0.7970   16.2150 C   0  0  0  0  0  0  0  0  0  0  0  0
   12.1030   -0.9430   15.4680 C   0  0  0  0  0  0  0  0  0  0  0  0
   11.4810   -2.1670   15.3880 C   0  0  0  0  0  0  0  0  0  0  0  0
   12.0080   -3.2600   16.0520 C   0  0  0  0  0  0  0  0  0  0  0  0
 16 15  1  0
 15 20  2  0
 20 19  1  0
 19 18  2  0
 18 17  1  0
 17 14  2  0
 15 14  1  0
 14 13  1  0
 13 11  1  0
 12 11  2  0
 11 10  1  0
 10  2  1  0
  3  2  2  0
  2  1  2  0
  4  2  1  0
  4  9  2  0
  9  8  1  0
  8  7  2  0
  7  6  1  0
  6  5  2  0
  5  4  1  0
M  END
>  <smiles>  (46) 
Cc1ccccc1NC(=O)CS(=O)(=O)c1ccccc1

>  <inchikey>  (46) 
QEKMROMAFDQUHE-UHFFFAOYSA-N

>  <alias>  (46) 
B1396a

$$$$
