XX01ZVNS2B-x3790_B_203_5_XX01ZVNS2B-x4590+B+203+1__LIG
     RDKit          3D

 29 33  0  0  0  0  0  0  0  0999 V2000
   -6.7580    5.7190  -12.5460 O   0  0  0  0  0  0  0  0  0  0  0  0
   -7.4120    4.8380  -13.1000 C   0  0  0  0  0  0  0  0  0  0  0  0
   -8.1700    3.9470  -12.4210 N   0  0  0  0  0  0  0  0  0  0  0  0
   -8.3360    3.9260  -11.0150 C   0  0  0  0  0  0  0  0  0  0  0  0
   -8.7300    2.7940  -10.3050 C   0  0  0  0  0  0  0  0  0  0  0  0
   -8.7780    2.8260   -8.9120 C   0  0  0  0  0  0  0  0  0  0  0  0
   -9.0770    1.7190   -7.9450 C   0  0  0  0  0  0  0  0  0  0  0  0
   -8.7700    2.3510   -6.6540 N   0  0  0  0  0  0  0  0  0  0  0  0
   -8.5890    3.7970   -6.7490 C   0  0  0  0  0  0  0  0  0  0  0  0
   -8.4590    3.9940   -8.2300 C   0  0  0  0  0  0  0  0  0  0  0  0
   -8.0780    5.1240   -8.9420 C   0  0  0  0  0  0  0  0  0  0  0  0
   -8.0170    5.0910  -10.3240 C   0  0  0  0  0  0  0  0  0  0  0  0
   -7.3910    4.7030  -14.5890 C   0  0  0  0  0  0  0  0  0  0  0  0
   -8.3750    4.1340  -15.3940 C   0  0  0  0  0  0  0  0  0  0  0  0
   -6.2780    5.2880  -15.1770 C   0  0  0  0  0  0  0  0  0  0  0  0
   -6.1220    5.3030  -16.5480 C   0  0  0  0  0  0  0  0  0  0  0  0
   -7.0940    4.7550  -17.3760 C   0  0  0  0  0  0  0  0  0  0  0  0
   -8.2310    4.1830  -16.7780 C   0  0  0  0  0  0  0  0  0  0  0  0
   -9.3750    3.6490  -17.9730 S   0  0  0  0  0  0  0  0  0  0  0  0
   -8.3430    4.1640  -19.2520 C   0  0  0  0  0  0  0  0  0  0  0  0
   -7.1710    4.7200  -18.8260 C   0  0  0  0  0  0  0  0  0  0  0  0
   -6.1010    5.1820  -19.7520 C   0  0  0  0  0  0  0  0  0  0  0  0
   -5.6860    4.3900  -20.8220 C   0  0  0  0  0  0  0  0  0  0  0  0
   -4.6810    4.8190  -21.6700 C   0  0  0  0  0  0  0  0  0  0  0  0
   -5.4870    6.4160  -19.5690 C   0  0  0  0  0  0  0  0  0  0  0  0
   -4.4890    6.8390  -20.4280 C   0  0  0  0  0  0  0  0  0  0  0  0
   -4.0700    6.0500  -21.4870 C   0  0  0  0  0  0  0  0  0  0  0  0
   -2.9930    6.5310  -22.4130 C   0  0  0  0  0  0  0  0  0  0  0  0
   -1.9180    7.1270  -21.6170 N   0  0  0  0  0  0  0  0  0  0  0  0
 29 28  1  0
 28 27  1  0
 27 24  1  0
 24 23  2  0
 23 22  1  0
 22 21  1  0
 21 20  2  0
 20 19  1  0
 19 18  1  0
 18 14  2  0
 14 13  1  0
 13  2  1  0
  2  1  2  0
  3  2  1  0
  4  3  1  0
  4 12  2  0
 12 11  1  0
 11 10  2  0
 10  6  1  0
  6  5  2  0
  5  4  1  0
  7  6  1  0
  8  7  1  0
  9  8  1  0
 10  9  1  0
 15 13  2  0
 16 15  1  0
 17 16  2  0
 21 17  1  0
 18 17  1  0
 25 22  2  0
 26 25  1  0
 27 26  2  0
M  END
$$$$
