A71EV2A-x4940_A_201_1_A71EV2A-x0911+A+147+1__LIG
     RDKit          3D

 21 22  0  0  0  0  0  0  0  0999 V2000
   10.4510   16.8870   19.3070 O   0  0  0  0  0  0  0  0  0  0  0  0
   10.9050   15.7580   19.5160 C   0  0  0  0  0  0  0  0  0  0  0  0
   11.2620   14.9370   18.5390 N   0  0  0  0  0  0  0  0  0  0  0  0
   11.0180   15.2430   20.9620 C   0  0  1  0  0  0  0  0  0  0  0  0
   11.7490   14.0150   21.0610 O   0  0  0  0  0  0  0  0  0  0  0  0
   11.7190   16.2690   21.8600 C   0  0  0  0  0  0  0  0  0  0  0  0
   11.6890   15.8420   23.3250 C   0  0  0  0  0  0  0  0  0  0  0  0
   10.2610   15.5960   23.7720 C   0  0  0  0  0  0  0  0  0  0  0  0
    9.5930   15.0380   21.4510 C   0  0  0  0  0  0  0  0  0  0  0  0
    9.5370   14.6800   22.8740 N   0  0  0  0  0  0  0  0  0  0  0  0
    8.6570   13.7430   23.2950 C   0  0  0  0  0  0  0  0  0  0  0  0
    7.7830   13.3010   22.5630 O   0  0  0  0  0  0  0  0  0  0  0  0
    8.7180   13.3590   24.7650 C   0  0  0  0  0  0  0  0  0  0  0  0
    7.8730   12.1520   25.1120 C   0  0  0  0  0  0  0  0  0  0  0  0
    8.1480   10.8600   24.6370 C   0  0  0  0  0  0  0  0  0  0  0  0
    9.5640   10.6680   23.6000 S   0  0  0  0  0  0  0  0  0  0  0  0
    9.5970    8.9100   23.2600 C   0  0  0  0  0  0  0  0  0  0  0  0
    6.8120   12.3100   26.0060 C   0  0  0  0  0  0  0  0  0  0  0  0
    6.0490   11.2260   26.4120 C   0  0  0  0  0  0  0  0  0  0  0  0
    6.3210    9.9670   25.9240 C   0  0  0  0  0  0  0  0  0  0  0  0
    7.3640    9.7760   25.0290 C   0  0  0  0  0  0  0  0  0  0  0  0
 17 16  1  0
 16 15  1  0
 15 21  2  0
 21 20  1  0
 20 19  2  0
 19 18  1  0
 18 14  2  0
 15 14  1  0
 14 13  1  0
 13 11  1  0
 12 11  2  0
 11 10  1  0
 10  8  1  0
  8  7  1  0
  7  6  1  0
  6  4  1  0
  4  5  1  6
  4  2  1  0
  3  2  1  0
  2  1  2  0
  9  4  1  0
 10  9  1  0
M  END
$$$$
