XX01ZVNS2B-x4872_B_203_7_XX01ZVNS2B-x4590+B+203+1__LIG
     RDKit          3D

 30 34  0  0  0  0  0  0  0  0999 V2000
  -10.5890    3.9890  -18.2780 Cl  0  0  0  0  0  0  0  0  0  0  0  0
   -9.0990    4.3870  -17.4730 C   0  0  0  0  0  0  0  0  0  0  0  0
   -7.9750    4.6350  -18.2370 C   0  0  0  0  0  0  0  0  0  0  0  0
   -6.8370    5.0620  -17.5690 C   0  0  0  0  0  0  0  0  0  0  0  0
   -6.7950    5.2490  -16.1780 C   0  0  0  0  0  0  0  0  0  0  0  0
   -5.4660    5.6700  -15.9150 C   0  0  0  0  0  0  0  0  0  0  0  0
   -4.7530    5.7350  -17.0220 N   0  0  0  0  0  0  0  0  0  0  0  0
   -5.5920    5.3640  -18.0380 N   0  0  0  0  0  0  0  0  0  0  0  0
   -5.1060    5.3260  -19.4190 C   0  0  0  0  0  0  0  0  0  0  0  0
   -3.5980    5.0960  -19.6540 C   0  0  0  0  0  0  0  0  0  0  0  0
   -4.9170    6.6710  -20.1500 C   0  0  0  0  0  0  0  0  0  0  0  0
   -3.6850    6.0960  -20.7420 N   0  0  0  0  0  0  0  0  0  0  0  0
   -9.1000    4.5220  -16.0940 C   0  0  0  0  0  0  0  0  0  0  0  0
   -7.9570    4.9760  -15.4360 C   0  0  0  0  0  0  0  0  0  0  0  0
   -8.0260    5.2540  -13.9640 C   0  0  0  0  0  0  0  0  0  0  0  0
   -7.5070    6.2660  -13.4980 O   0  0  0  0  0  0  0  0  0  0  0  0
   -8.6110    4.2880  -13.2070 N   0  0  0  0  0  0  0  0  0  0  0  0
   -8.6540    4.2030  -11.7890 C   0  0  0  0  0  0  0  0  0  0  0  0
   -8.5910    5.3440  -10.9960 C   0  0  0  0  0  0  0  0  0  0  0  0
   -8.5540    5.1970   -9.6320 C   0  0  0  0  0  0  0  0  0  0  0  0
   -8.6760    6.3060   -8.8690 F   0  0  0  0  0  0  0  0  0  0  0  0
   -8.5180    3.9440   -8.9950 C   0  0  0  0  0  0  0  0  0  0  0  0
   -8.6240    2.8210   -9.8090 C   0  0  0  0  0  0  0  0  0  0  0  0
   -8.6970    2.9480  -11.1880 C   0  0  0  0  0  0  0  0  0  0  0  0
   -8.2700    3.8460   -7.6010 N   0  0  0  0  0  0  0  0  0  0  0  0
   -9.4550    3.7590   -6.7460 C   0  0  0  0  0  0  0  0  0  0  0  0
   -9.0890    3.2870   -5.3520 C   0  0  0  0  0  0  0  0  0  0  0  0
   -8.0230    4.1790   -4.7330 C   0  0  0  0  0  0  0  0  0  0  0  0
   -6.8120    4.2840   -5.6440 C   0  0  0  0  0  0  0  0  0  0  0  0
   -7.2150    4.7080   -7.0480 C   0  0  0  0  0  0  0  0  0  0  0  0
 12 10  1  0
 10  9  1  0
  9  8  1  0
  8  7  1  0
  7  6  2  0
  6  5  1  0
  5 14  2  0
 15 14  1  0
 16 15  2  0
 17 15  1  0
 18 17  1  0
 18 24  2  0
 24 23  1  0
 23 22  2  0
 25 22  1  0
 25 30  1  0
 30 29  1  0
 29 28  1  0
 28 27  1  0
 27 26  1  0
 26 25  1  0
 22 20  1  0
 21 20  1  0
 20 19  2  0
 19 18  1  0
 14 13  1  0
 13  2  2  0
  2  1  1  0
  3  2  1  0
  4  3  2  0
  5  4  1  0
  8  4  1  0
 11  9  1  0
 12 11  1  0
M  END
$$$$
