Z0490a
     RDKit          3D

 11 12  0  0  0  0  0  0  0  0999 V2000
   -3.2790    4.7320  -17.1990 C   0  0  0  0  0  0  0  0  0  0  0  0
   -4.6000    5.3000  -16.7330 C   0  0  0  0  0  0  0  0  0  0  0  0
   -5.6740    5.1070  -17.7360 N   0  0  0  0  0  0  0  0  0  0  0  0
   -7.0080    4.8560  -17.4580 C   0  0  0  0  0  0  0  0  0  0  0  0
   -7.6340    4.7580  -18.6990 C   0  0  0  0  0  0  0  0  0  0  0  0
   -6.7020    4.9550  -19.7240 N   0  0  0  0  0  0  0  0  0  0  0  0
   -5.5690    5.1470  -19.0970 C   0  0  0  0  0  0  0  0  0  0  0  0
   -7.6940    4.6670  -16.2650 C   0  0  0  0  0  0  0  0  0  0  0  0
   -9.0480    4.3730  -16.3440 C   0  0  0  0  0  0  0  0  0  0  0  0
   -9.6920    4.2760  -17.5780 C   0  0  0  0  0  0  0  0  0  0  0  0
   -8.9940    4.4600  -18.7620 C   0  0  0  0  0  0  0  0  0  0  0  0
  2  1  1  0
  3  2  1  0
  4  3  1  0
  5  4  2  0
  6  5  1  0
  7  6  2  0
  7  3  1  0
  8  4  1  0
  9  8  2  0
 10  9  1  0
 11 10  2  0
 11  5  1  0
M  END
>  <smiles>  (1) 
CCn1cnc2ccccc21

>  <inchikey>  (1) 
WVNMLOGVAVGQIT-UHFFFAOYSA-N

>  <alias>  (1) 
Z0490a

$$$$
Z0844a
     RDKit          3D

 12 13  0  0  0  0  0  0  0  0999 V2000
  -10.8240    4.4490  -17.7270 N   0  0  0  0  0  0  0  0  0  0  0  0
   -9.8040    4.2710  -18.1930 C   0  0  0  0  0  0  0  0  0  0  0  0
   -8.5350    4.0070  -18.8640 C   0  0  0  0  0  0  0  0  0  0  0  0
   -7.3720    4.7570  -18.3020 C   0  0  0  0  0  0  0  0  0  0  0  0
   -6.2440    4.9570  -19.0270 N   0  0  0  0  0  0  0  0  0  0  0  0
   -5.3980    5.9310  -18.3490 C   0  0  1  0  0  0  0  0  0  0  0  0
   -6.0220    5.9420  -16.9280 C   0  0  1  0  0  0  0  0  0  0  0  0
   -7.3120    5.2430  -17.1210 N   0  0  0  0  0  0  0  0  0  0  0  0
   -3.8680    5.9290  -18.2910 C   0  0  0  0  0  0  0  0  0  0  0  0
   -3.3110    4.9830  -17.2240 C   0  0  0  0  0  0  0  0  0  0  0  0
   -3.8100    5.3610  -15.8340 C   0  0  0  0  0  0  0  0  0  0  0  0
   -5.3330    5.2600  -15.7430 C   0  0  0  0  0  0  0  0  0  0  0  0
  2  1  3  0
  3  2  1  0
  4  3  1  0
  5  4  2  0
  6  5  1  0
  7  6  1  0
  8  4  1  0
  8  7  1  0
  6  9  1  1
 10  9  1  0
 11 10  1  0
  7 12  1  1
 12 11  1  0
M  END
>  <smiles>  (2) 
N#CCC1=N[C@@H]2CCCC[C@@H]2N1

>  <inchikey>  (2) 
MTYFPGDPOCYMJB-OCAPTIKFSA-N

>  <alias>  (2) 
Z0844a

$$$$
Z1682a
     RDKit          3D

 16 17  0  0  0  0  0  0  0  0999 V2000
   -5.6560    4.8760  -18.7900 C   0  0  0  0  0  0  0  0  0  0  0  0
   -7.4540    5.5760  -13.5380 C   0  0  2  0  0  0  0  0  0  0  0  0
   -4.4110    5.1210  -18.2350 C   0  0  0  0  0  0  0  0  0  0  0  0
   -4.2890    5.1020  -16.8380 C   0  0  0  0  0  0  0  0  0  0  0  0
   -6.5200    4.6160  -16.5080 C   0  0  0  0  0  0  0  0  0  0  0  0
   -7.6080    4.3640  -15.6190 C   0  0  0  0  0  0  0  0  0  0  0  0
   -8.8530    4.1010  -16.1120 C   0  0  0  0  0  0  0  0  0  0  0  0
   -9.0860    4.0990  -17.4950 C   0  0  0  0  0  0  0  0  0  0  0  0
   -8.0730    4.3440  -18.3700 C   0  0  0  0  0  0  0  0  0  0  0  0
   -6.7630    4.6100  -17.9120 C   0  0  0  0  0  0  0  0  0  0  0  0
   -6.8040    6.5910  -14.0810 F   0  0  0  0  0  0  0  0  0  0  0  0
   -8.7220    5.9330  -13.4280 F   0  0  0  0  0  0  0  0  0  0  0  0
   -6.9690    5.4460  -12.3160 F   0  0  0  0  0  0  0  0  0  0  0  0
   -5.8080    4.8890  -20.1650 N   0  0  0  0  0  0  0  0  0  0  0  0
   -5.2740    4.8610  -15.9950 N   0  0  0  0  0  0  0  0  0  0  0  0
   -7.3070    4.3630  -14.2780 O   0  0  0  0  0  0  0  0  0  0  0  0
  3  1  2  0
  4  3  1  0
  6  5  2  0
  7  6  1  0
  8  7  2  0
  9  8  1  0
 10  9  2  0
 10  5  1  0
 10  1  1  0
  2 11  1  6
 12  2  1  0
 13  2  1  0
 14  1  1  0
 15  5  1  0
 15  4  2  0
 16  6  1  0
 16  2  1  0
M  END
>  <smiles>  (3) 
Nc1ccnc2c(OC(F)(F)F)cccc12

>  <inchikey>  (3) 
TXQDWAKYWHIPPR-UHFFFAOYSA-N

>  <alias>  (3) 
Z1682a

$$$$
Z2048a
     RDKit          3D

 25 26  0  0  0  0  0  0  0  0999 V2000
   -4.6200    5.9450  -11.5160 C   0  0  0  0  0  0  0  0  0  0  0  0
   -9.3540    4.1750  -17.3320 C   0  0  0  0  0  0  0  0  0  0  0  0
   -8.2810    4.5560  -18.0740 C   0  0  0  0  0  0  0  0  0  0  0  0
   -7.0260    4.7900  -17.4600 C   0  0  0  0  0  0  0  0  0  0  0  0
   -5.8630    5.1830  -18.1900 C   0  0  0  0  0  0  0  0  0  0  0  0
   -5.9470    5.3810  -19.6840 C   0  0  0  0  0  0  0  0  0  0  0  0
   -4.6970    5.3790  -17.4990 C   0  0  0  0  0  0  0  0  0  0  0  0
   -4.6590    5.1820  -16.1020 C   0  0  0  0  0  0  0  0  0  0  0  0
   -3.3800    5.3870  -15.3490 C   0  0  0  0  0  0  0  0  0  0  0  0
   -6.9040    4.6140  -16.0530 C   0  0  0  0  0  0  0  0  0  0  0  0
   -5.2150    4.6180  -11.8620 C   0  0  0  0  0  0  0  0  0  0  0  0
   -7.1520    3.1530  -11.7640 C   0  0  1  0  0  0  0  0  0  0  0  0
   -8.3760    3.0130  -10.8610 C   0  0  0  0  0  0  0  0  0  0  0  0
   -8.0340    3.0490   -9.3800 C   0  0  0  0  0  0  0  0  0  0  0  0
   -9.0290    2.2900   -8.5180 C   0  0  0  0  0  0  0  0  0  0  0  0
   -7.5170    2.9490  -13.2460 C   0  0  0  0  0  0  0  0  0  0  0  0
   -8.0520    4.2100  -15.2990 C   0  0  0  0  0  0  0  0  0  0  0  0
   -9.2470    4.0020  -15.9430 C   0  0  0  0  0  0  0  0  0  0  0  0
   -6.4950    4.4290  -11.5310 N   0  0  0  0  0  0  0  0  0  0  0  0
   -8.7060    2.3100   -7.0880 N   0  0  0  0  0  0  0  0  0  0  0  0
   -7.8560    4.0690  -13.9190 N   0  0  0  0  0  0  0  0  0  0  0  0
   -5.7210    4.8130  -15.4040 N   0  0  0  0  0  0  0  0  0  0  0  0
   -4.5630    3.7360  -12.4200 O   0  0  0  0  0  0  0  0  0  0  0  0
   -7.5050    1.8360  -13.7490 O   0  0  0  0  0  0  0  0  0  0  0  0
   -4.6860    5.5980  -20.3100 O   0  0  0  0  0  0  0  0  0  0  0  0
  3  2  2  0
  4  3  1  0
  5  4  2  0
  6  5  1  0
  7  5  1  0
  8  7  2  0
  9  8  1  0
 10  4  1  0
 11  1  1  0
 12 13  1  1
 14 13  1  0
 15 14  1  0
 16 12  1  0
 17 10  1  0
 18  2  1  0
 18 17  2  0
 19 12  1  0
 19 11  1  0
 20 15  1  0
 21 17  1  0
 21 16  1  0
 22 10  2  0
 22  8  1  0
 23 11  2  0
 24 16  2  0
 25  6  1  0
M  END
>  <smiles>  (4) 
CC(=O)N[C@@H](CCCN)C(=O)Nc1cccc2c(CO)cc(C)nc12

>  <inchikey>  (4) 
AQNGCBAZOXJWCQ-INIZCTEOSA-N

>  <alias>  (4) 
Z2048a

$$$$
Z2971a
     RDKit          3D

 22 25  0  0  0  0  0  0  0  0999 V2000
   -6.0020    7.8730  -23.4380 O   0  0  0  0  0  0  0  0  0  0  0  0
   -4.7960    8.0290  -23.6600 C   0  0  0  0  0  0  0  0  0  0  0  0
   -4.1770    8.4020  -24.7970 N   0  0  0  0  0  0  0  0  0  0  0  0
   -2.8040    8.4540  -24.6490 N   0  0  0  0  0  0  0  0  0  0  0  0
   -2.5970    8.1110  -23.4160 C   0  0  0  0  0  0  0  0  0  0  0  0
   -3.7630    7.8380  -22.7550 N   0  0  0  0  0  0  0  0  0  0  0  0
   -3.9150    7.4110  -21.3450 C   0  0  2  0  0  0  0  0  0  0  0  0
   -3.9930    8.5880  -20.3840 C   0  0  0  0  0  0  0  0  0  0  0  0
   -4.2050    8.0920  -18.9570 C   0  0  0  0  0  0  0  0  0  0  0  0
   -3.1710    7.1340  -18.5480 N   0  0  0  0  0  0  0  0  0  0  0  0
   -3.3650    6.6930  -17.1620 C   0  0  0  0  0  0  0  0  0  0  0  0
   -4.7400    6.4860  -16.5990 C   0  0  0  0  0  0  0  0  0  0  0  0
   -5.1010    6.8380  -15.3280 C   0  0  0  0  0  0  0  0  0  0  0  0
   -6.3860    6.4390  -15.0750 N   0  0  0  0  0  0  0  0  0  0  0  0
   -6.8790    5.7790  -16.1680 C   0  0  0  0  0  0  0  0  0  0  0  0
   -8.1230    5.1860  -16.3770 C   0  0  0  0  0  0  0  0  0  0  0  0
   -8.3460    4.5930  -17.5970 C   0  0  0  0  0  0  0  0  0  0  0  0
   -7.3480    4.5440  -18.5680 C   0  0  0  0  0  0  0  0  0  0  0  0
   -6.1220    5.1320  -18.3670 C   0  0  0  0  0  0  0  0  0  0  0  0
   -5.8580    5.7560  -17.1410 C   0  0  0  0  0  0  0  0  0  0  0  0
   -3.0880    5.9870  -19.4640 C   0  0  0  0  0  0  0  0  0  0  0  0
   -2.8490    6.4190  -20.9090 C   0  0  0  0  0  0  0  0  0  0  0  0
  2  1  2  0
  3  2  1  0
  4  3  1  0
  5  4  2  0
  6  5  1  0
  6  2  1  0
  7  6  1  6
  8  7  1  0
  9  8  1  0
 10  9  1  0
 11 10  1  0
 12 11  1  0
 13 12  2  0
 14 13  1  0
 15 14  1  0
 16 15  2  0
 17 16  1  0
 18 17  2  0
 19 18  1  0
 20 19  2  0
 20 15  1  0
 20 12  1  0
 21 10  1  0
 22 21  1  0
 22  7  1  0
M  END
>  <smiles>  (5) 
O=c1[nH]ncn1C1CCN(Cc2c[nH]c3ccccc23)CC1

>  <inchikey>  (5) 
FERNFXYWZPTFED-UHFFFAOYSA-N

>  <alias>  (5) 
Z2971a

$$$$
Z0051a
     RDKit          3D

 12 13  0  0  0  0  0  0  0  0999 V2000
   -9.9790    4.0660  -18.5660 N   0  0  0  0  0  0  0  0  0  0  0  0
   -8.7500    4.4580  -18.2220 C   0  0  0  0  0  0  0  0  0  0  0  0
   -8.4660    5.1540  -16.6340 S   0  0  0  0  0  0  0  0  0  0  0  0
   -7.6950    4.3450  -18.9890 N   0  0  0  0  0  0  0  0  0  0  0  0
   -6.5550    4.8240  -18.3370 C   0  0  0  0  0  0  0  0  0  0  0  0
   -6.7750    5.2880  -17.0350 C   0  0  0  0  0  0  0  0  0  0  0  0
   -5.7250    5.7460  -16.2490 C   0  0  0  0  0  0  0  0  0  0  0  0
   -4.4430    5.7500  -16.7710 C   0  0  0  0  0  0  0  0  0  0  0  0
   -5.2650    4.8640  -18.8690 C   0  0  0  0  0  0  0  0  0  0  0  0
   -4.2200    5.3210  -18.0710 C   0  0  0  0  0  0  0  0  0  0  0  0
   -2.8940    5.4040  -18.4180 O   0  0  0  0  0  0  0  0  0  0  0  0
   -2.5100    4.9890  -19.7310 C   0  0  0  0  0  0  0  0  0  0  0  0
  2  1  1  0
  3  2  1  0
  4  2  2  0
  5  4  1  0
  6  5  2  0
  6  3  1  0
  7  6  1  0
  8  7  2  0
  9  5  1  0
 10  9  2  0
 10  8  1  0
 11 10  1  0
 12 11  1  0
M  END
>  <smiles>  (6) 
COc1ccc2sc(N)nc2c1

>  <inchikey>  (6) 
OMIHQJBWAPWLBO-UHFFFAOYSA-N

>  <alias>  (6) 
Z0051a

$$$$
Z0089a
     RDKit          3D

 13 14  0  0  0  0  0  0  0  0999 V2000
   -1.9020    4.2350  -19.4510 C   0  0  0  0  0  0  0  0  0  0  0  0
   -2.8600    5.2770  -18.9090 C   0  0  1  0  0  0  0  0  0  0  0  0
   -2.3230    6.6800  -19.0920 C   0  0  0  0  0  0  0  0  0  0  0  0
   -4.1560    5.1610  -19.5830 N   0  0  0  0  0  0  0  0  0  0  0  0
   -5.3370    4.9910  -18.9240 C   0  0  0  0  0  0  0  0  0  0  0  0
   -6.5190    4.7700  -19.5490 N   0  0  0  0  0  0  0  0  0  0  0  0
   -7.4660    4.5670  -18.5470 C   0  0  0  0  0  0  0  0  0  0  0  0
   -6.7770    4.7020  -17.3450 C   0  0  0  0  0  0  0  0  0  0  0  0
   -5.4330    4.9680  -17.6040 N   0  0  0  0  0  0  0  0  0  0  0  0
   -8.8130    4.2320  -18.5820 C   0  0  0  0  0  0  0  0  0  0  0  0
   -9.4640    4.0240  -17.3720 C   0  0  0  0  0  0  0  0  0  0  0  0
   -8.7900    4.1710  -16.1670 C   0  0  0  0  0  0  0  0  0  0  0  0
   -7.4480    4.5140  -16.1360 C   0  0  0  0  0  0  0  0  0  0  0  0
  2  1  1  6
  3  2  1  0
  4  2  1  0
  5  4  1  0
  6  5  2  0
  7  6  1  0
  8  7  2  0
  9  8  1  0
  9  5  1  0
 10  7  1  0
 11 10  2  0
 12 11  1  0
 13  8  1  0
 13 12  2  0
M  END
>  <smiles>  (7) 
CC(C)Nc1nc2ccccc2[nH]1

>  <inchikey>  (7) 
KRNAPWQWOXYDPY-UHFFFAOYSA-N

>  <alias>  (7) 
Z0089a

$$$$
Z0101a
     RDKit          3D

 15 15  0  0  0  0  0  0  0  0999 V2000
  -10.3540    3.6840  -18.3730 Cl  0  0  0  0  0  0  0  0  0  0  0  0
   -8.8750    4.1240  -17.5620 C   0  0  0  0  0  0  0  0  0  0  0  0
   -8.8420    4.1370  -16.1840 C   0  0  0  0  0  0  0  0  0  0  0  0
   -7.6810    4.5390  -15.5470 C   0  0  0  0  0  0  0  0  0  0  0  0
   -6.5700    4.9100  -16.2870 C   0  0  0  0  0  0  0  0  0  0  0  0
   -7.7790    4.4910  -18.3200 C   0  0  0  0  0  0  0  0  0  0  0  0
   -6.6090    4.8880  -17.6780 C   0  0  0  0  0  0  0  0  0  0  0  0
   -5.3620    5.2460  -18.4260 C   0  0  0  0  0  0  0  0  0  0  0  0
   -4.3560    5.6200  -17.8280 O   0  0  0  0  0  0  0  0  0  0  0  0
   -5.3930    5.1380  -19.7690 N   0  0  0  0  0  0  0  0  0  0  0  0
   -4.2640    5.4430  -20.6810 C   0  0  1  0  0  0  0  0  0  0  0  0
   -4.0530    6.9590  -20.7330 C   0  0  0  0  0  0  0  0  0  0  0  0
   -2.9820    4.7740  -20.1990 C   0  0  0  0  0  0  0  0  0  0  0  0
   -4.5150    4.8340  -22.0520 C   0  0  0  0  0  0  0  0  0  0  0  0
   -5.3880    5.5970  -22.8680 O   0  0  0  0  0  0  0  0  0  0  0  0
  2  1  1  0
  3  2  2  0
  4  3  1  0
  5  4  2  0
  6  2  1  0
  7  6  2  0
  7  5  1  0
  8  7  1  0
  9  8  2  0
 10  8  1  0
 11 10  1  0
 11 12  1  6
 13 11  1  0
 14 11  1  0
 15 14  1  0
M  END
>  <smiles>  (8) 
CC(C)(CO)NC(=O)c1cccc(Cl)c1

>  <inchikey>  (8) 
XZDXDRPMHCVWBK-UHFFFAOYSA-N

>  <alias>  (8) 
Z0101a

$$$$
Z0182a
     RDKit          3D

 16 17  0  0  0  0  0  0  0  0999 V2000
  -10.5270    4.1060  -17.8370 F   0  0  0  0  0  0  0  0  0  0  0  0
   -9.2240    4.4290  -17.6110 C   0  0  0  0  0  0  0  0  0  0  0  0
   -8.8210    4.6720  -16.3240 C   0  0  0  0  0  0  0  0  0  0  0  0
   -7.5320    5.1320  -16.1170 C   0  0  0  0  0  0  0  0  0  0  0  0
   -8.3950    4.5770  -18.6870 C   0  0  0  0  0  0  0  0  0  0  0  0
   -7.1120    5.0430  -18.4670 C   0  0  0  0  0  0  0  0  0  0  0  0
   -6.6620    5.3430  -17.1840 C   0  0  0  0  0  0  0  0  0  0  0  0
   -5.2600    5.9220  -16.9520 C   0  0  1  0  0  0  0  0  0  0  0  0
   -5.3990    7.4530  -16.7820 C   0  0  0  0  0  0  0  0  0  0  0  0
   -5.8390    7.8910  -15.6090 N   0  0  0  0  0  0  0  0  0  0  0  0
   -5.1140    8.2210  -17.7000 O   0  0  0  0  0  0  0  0  0  0  0  0
   -4.5950    5.3170  -15.6850 C   0  0  0  0  0  0  0  0  0  0  0  0
   -3.2790    4.5810  -15.9190 C   0  0  0  0  0  0  0  0  0  0  0  0
   -2.3420    5.4520  -16.7360 C   0  0  0  0  0  0  0  0  0  0  0  0
   -2.9260    6.0250  -17.9760 N   0  0  0  0  0  0  0  0  0  0  0  0
   -4.3230    5.6450  -18.1640 C   0  0  0  0  0  0  0  0  0  0  0  0
  2  1  1  0
  3  2  2  0
  4  3  1  0
  5  2  1  0
  6  5  2  0
  7  6  1  0
  7  4  2  0
  8  7  1  0
  8  9  1  1
 10  9  1  0
 11  9  2  0
 12  8  1  0
 13 12  1  0
 14 13  1  0
 15 14  1  0
 16 15  1  0
 16  8  1  0
M  END
>  <smiles>  (9) 
NC(=O)[C@]1(c2ccc(F)cc2)CCCNC1

>  <inchikey>  (9) 
AQYHAXBZALQJNL-GFCCVEGCSA-N

>  <alias>  (9) 
Z0182a

$$$$
Z0227a
     RDKit          3D

 13 14  0  0  0  0  0  0  0  0999 V2000
   -5.2800    5.0950  -20.1020 N   0  0  0  0  0  0  0  0  0  0  0  0
   -5.3670    6.1950  -19.1420 C   0  0  0  0  0  0  0  0  0  0  0  0
   -5.6780    5.7030  -17.7100 C   0  0  1  0  0  0  0  0  0  0  0  0
   -4.5730    4.7250  -17.2440 C   0  0  0  0  0  0  0  0  0  0  0  0
   -3.7040    5.5000  -16.2640 C   0  0  0  0  0  0  0  0  0  0  0  0
   -4.5890    6.4700  -15.6510 C   0  0  0  0  0  0  0  0  0  0  0  0
   -5.5150    6.9270  -16.7740 C   0  0  0  0  0  0  0  0  0  0  0  0
   -7.0750    5.1060  -17.5700 C   0  0  0  0  0  0  0  0  0  0  0  0
   -7.6170    4.8700  -16.3110 C   0  0  0  0  0  0  0  0  0  0  0  0
   -8.8850    4.3240  -16.2280 C   0  0  0  0  0  0  0  0  0  0  0  0
   -9.5820    4.0340  -17.3780 C   0  0  0  0  0  0  0  0  0  0  0  0
   -8.9760    4.2970  -18.5860 C   0  0  0  0  0  0  0  0  0  0  0  0
   -7.7410    4.8170  -18.6990 N   0  0  0  0  0  0  0  0  0  0  0  0
  2  1  1  0
  3  2  1  6
  4  3  1  0
  5  4  1  0
  6  5  1  0
  7  3  1  0
  7  6  1  0
  8  3  1  0
  9  8  2  0
 10  9  1  0
 11 10  2  0
 12 11  1  0
 13 12  2  0
 13  8  1  0
M  END
>  <smiles>  (10) 
NCC1(c2ccccn2)CCCC1

>  <inchikey>  (10) 
DQSRGJUPRBBWIV-UHFFFAOYSA-N

>  <alias>  (10) 
Z0227a

$$$$
Z0229a
     RDKit          3D

 15 17  0  0  0  0  0  0  0  0999 V2000
   -3.4970    5.1440  -17.3680 O   0  0  0  0  0  0  0  0  0  0  0  0
   -4.6920    5.3790  -17.5050 C   0  0  0  0  0  0  0  0  0  0  0  0
   -5.2450    5.7250  -18.8740 C   0  0  1  0  0  0  0  0  0  0  0  0
   -5.6310    7.2170  -18.8720 C   0  0  0  0  0  0  0  0  0  0  0  0
   -5.0360    7.7770  -20.1360 C   0  0  0  0  0  0  0  0  0  0  0  0
   -3.8330    6.8850  -20.3900 C   0  0  0  0  0  0  0  0  0  0  0  0
   -4.2300    5.5850  -19.9350 N   0  0  0  0  0  0  0  0  0  0  0  0
   -6.4480    4.8310  -19.2010 C   0  0  0  0  0  0  0  0  0  0  0  0
   -7.4190    4.8030  -18.0400 C   0  0  0  0  0  0  0  0  0  0  0  0
   -8.7670    4.5190  -18.2340 C   0  0  0  0  0  0  0  0  0  0  0  0
   -9.6210    4.3790  -17.1560 C   0  0  0  0  0  0  0  0  0  0  0  0
   -9.1510    4.5540  -15.8660 C   0  0  0  0  0  0  0  0  0  0  0  0
   -7.8220    4.8630  -15.6420 C   0  0  0  0  0  0  0  0  0  0  0  0
   -6.9500    4.9700  -16.7290 C   0  0  0  0  0  0  0  0  0  0  0  0
   -5.5850    5.1740  -16.5200 N   0  0  0  0  0  0  0  0  0  0  0  0
  2  1  2  0
  3  2  1  0
  3  4  1  1
  5  4  1  0
  6  5  1  0
  7  6  1  0
  7  3  1  0
  8  3  1  0
  9  8  1  0
 10  9  1  0
 11 10  2  0
 12 11  1  0
 13 12  2  0
 14  9  2  0
 14 13  1  0
 15 14  1  0
 15  2  1  0
M  END
>  <smiles>  (11) 
O=C1Nc2ccccc2C[C@@]12CCCN2

>  <inchikey>  (11) 
ABOZUPQQWCLVDB-LBPRGKRZSA-N

>  <alias>  (11) 
Z0229a

$$$$
Z0386a
     RDKit          3D

  7  7  0  0  0  0  0  0  0  0999 V2000
   -6.2460    5.2960  -19.9400 N   0  0  0  0  0  0  0  0  0  0  0  0
   -6.2550    5.2360  -18.4840 C   0  0  0  0  0  0  0  0  0  0  0  0
   -7.5290    4.7120  -17.9060 C   0  0  0  0  0  0  0  0  0  0  0  0
   -8.6180    4.3650  -18.6920 N   0  0  0  0  0  0  0  0  0  0  0  0
   -9.5080    4.0000  -17.8460 C   0  0  0  0  0  0  0  0  0  0  0  0
   -9.1280    4.0450  -16.5540 O   0  0  0  0  0  0  0  0  0  0  0  0
   -7.8470    4.5080  -16.6220 C   0  0  0  0  0  0  0  0  0  0  0  0
  2  1  1  0
  3  2  1  0
  4  3  1  0
  5  4  2  0
  6  5  1  0
  7  6  1  0
  7  3  2  0
M  END
>  <smiles>  (12) 
NCc1cocn1

>  <inchikey>  (12) 
ULZXEYFKBUPRQM-UHFFFAOYSA-N

>  <alias>  (12) 
Z0386a

$$$$
Z0404a
     RDKit          3D

 16 17  0  0  0  0  0  0  0  0999 V2000
   -8.1120    8.5230  -13.2510 O   0  0  0  0  0  0  0  0  0  0  0  0
   -8.7150    7.2500  -13.5360 S   0  0  2  0  0  0  0  0  0  0  0  0
   -8.2850    6.5490  -14.7120 O   0  0  0  0  0  0  0  0  0  0  0  0
  -10.4540    7.4580  -13.6120 C   0  0  0  0  0  0  0  0  0  0  0  0
   -8.4640    6.1950  -12.1410 C   0  0  0  0  0  0  0  0  0  0  0  0
   -8.2740    6.7570  -10.8910 C   0  0  0  0  0  0  0  0  0  0  0  0
   -8.2560    5.9420   -9.7750 C   0  0  0  0  0  0  0  0  0  0  0  0
   -8.4280    4.5600   -9.8950 C   0  0  0  0  0  0  0  0  0  0  0  0
   -8.5570    4.0080  -11.1740 C   0  0  0  0  0  0  0  0  0  0  0  0
   -8.5720    4.8200  -12.2940 C   0  0  0  0  0  0  0  0  0  0  0  0
   -8.5600    3.7620   -8.7540 N   0  0  0  0  0  0  0  0  0  0  0  0
   -8.5350    2.3010   -8.8880 C   0  0  0  0  0  0  0  0  0  0  0  0
   -9.2770    1.6730   -7.7340 C   0  0  0  0  0  0  0  0  0  0  0  0
   -8.6650    2.0900   -6.4580 N   0  0  0  0  0  0  0  0  0  0  0  0
   -8.6250    3.5640   -6.3180 C   0  0  0  0  0  0  0  0  0  0  0  0
   -7.9490    4.2210   -7.5020 C   0  0  0  0  0  0  0  0  0  0  0  0
  2  1  2  0
  3  2  2  0
  2  4  1  6
  5  2  1  0
  6  5  2  0
  7  6  1  0
  8  7  2  0
  9  8  1  0
 10  9  2  0
 10  5  1  0
 11  8  1  0
 12 11  1  0
 13 12  1  0
 14 13  1  0
 15 14  1  0
 16 15  1  0
 16 11  1  0
M  END
>  <smiles>  (13) 
CS(=O)(=O)c1ccc(N2CCNCC2)cc1

>  <inchikey>  (13) 
KNQFDOLIXOOIGX-UHFFFAOYSA-N

>  <alias>  (13) 
Z0404a

$$$$
Z0422a
     RDKit          3D

 11 12  0  0  0  0  0  0  0  0999 V2000
   -2.3740    5.1750  -17.7900 N   0  0  0  0  0  0  0  0  0  0  0  0
   -3.5900    5.0270  -18.3220 C   0  0  0  0  0  0  0  0  0  0  0  0
   -4.7330    5.0370  -17.5670 N   0  0  0  0  0  0  0  0  0  0  0  0
   -5.7460    4.8110  -18.4650 C   0  0  0  0  0  0  0  0  0  0  0  0
   -5.2590    4.6900  -19.6920 N   0  0  0  0  0  0  0  0  0  0  0  0
   -3.8740    4.8240  -19.6080 N   0  0  0  0  0  0  0  0  0  0  0  0
   -7.1500    4.6840  -18.1130 C   0  0  0  0  0  0  0  0  0  0  0  0
   -7.6660    4.8080  -16.4840 S   0  0  0  0  0  0  0  0  0  0  0  0
   -9.2800    4.5010  -16.9140 C   0  0  0  0  0  0  0  0  0  0  0  0
   -9.4330    4.3190  -18.2380 C   0  0  0  0  0  0  0  0  0  0  0  0
   -8.2110    4.4280  -18.9320 C   0  0  0  0  0  0  0  0  0  0  0  0
  2  1  1  0
  3  2  1  0
  4  3  1  0
  5  4  2  0
  6  5  1  0
  6  2  2  0
  7  4  1  0
  8  7  1  0
  9  8  1  0
 10  9  2  0
 11 10  1  0
 11  7  2  0
M  END
>  <smiles>  (14) 
Nc1nnc(-c2cccs2)[nH]1

>  <inchikey>  (14) 
XMLRXJVRTGHHIJ-UHFFFAOYSA-N

>  <alias>  (14) 
Z0422a

$$$$
Z0425a
     RDKit          3D

 11 11  0  0  0  0  0  0  0  0999 V2000
   -2.2990    5.0160  -16.9210 N   0  0  0  0  0  0  0  0  0  0  0  0
   -3.5920    5.1990  -16.2620 C   0  0  0  0  0  0  0  0  0  0  0  0
   -4.7310    5.1680  -17.2580 C   0  0  0  0  0  0  0  0  0  0  0  0
   -6.0320    4.9150  -16.8330 C   0  0  0  0  0  0  0  0  0  0  0  0
   -4.5180    5.3920  -18.6100 C   0  0  0  0  0  0  0  0  0  0  0  0
   -5.5930    5.3640  -19.4770 C   0  0  0  0  0  0  0  0  0  0  0  0
   -6.8560    5.1170  -19.0930 N   0  0  0  0  0  0  0  0  0  0  0  0
   -7.0630    4.8910  -17.7840 C   0  0  0  0  0  0  0  0  0  0  0  0
   -8.3410    4.6010  -17.3920 N   0  0  0  0  0  0  0  0  0  0  0  0
   -9.3870    4.2670  -18.3500 C   0  0  0  0  0  0  0  0  0  0  0  0
   -8.7210    4.5850  -15.9870 C   0  0  0  0  0  0  0  0  0  0  0  0
  2  1  1  0
  3  2  1  0
  4  3  2  0
  5  3  1  0
  6  5  2  0
  7  6  1  0
  8  7  2  0
  8  4  1  0
  9  8  1  0
 10  9  1  0
 11  9  1  0
M  END
>  <smiles>  (15) 
CN(C)c1cc(CN)ccn1

>  <inchikey>  (15) 
FVBLFJODKIHJMW-UHFFFAOYSA-N

>  <alias>  (15) 
Z0425a

$$$$
Z0429a
     RDKit          3D

 16 18  0  0  0  0  0  0  0  0999 V2000
   -7.4390    4.6770  -16.0770 C   0  0  0  0  0  0  0  0  0  0  0  0
   -8.7410    4.2810  -16.1590 C   0  0  0  0  0  0  0  0  0  0  0  0
   -9.3580    4.1270  -17.3920 C   0  0  0  0  0  0  0  0  0  0  0  0
   -8.6780    4.3820  -18.5480 C   0  0  0  0  0  0  0  0  0  0  0  0
   -6.6930    4.9610  -17.2480 C   0  0  0  0  0  0  0  0  0  0  0  0
   -7.3330    4.8190  -18.5060 C   0  0  0  0  0  0  0  0  0  0  0  0
   -6.7070    5.1120  -19.6920 N   0  0  0  0  0  0  0  0  0  0  0  0
   -5.4610    5.5420  -19.6320 C   0  0  0  0  0  0  0  0  0  0  0  0
   -4.7360    5.6980  -18.4660 C   0  0  0  0  0  0  0  0  0  0  0  0
   -5.3340    5.3990  -17.2570 C   0  0  0  0  0  0  0  0  0  0  0  0
   -4.6190    5.4680  -16.0290 N   0  0  0  0  0  0  0  0  0  0  0  0
   -4.5410    6.8200  -15.4520 C   0  0  0  0  0  0  0  0  0  0  0  0
   -3.3260    4.7670  -16.0620 C   0  0  0  0  0  0  0  0  0  0  0  0
   -2.6440    4.7310  -14.7020 C   0  0  0  0  0  0  0  0  0  0  0  0
   -3.3580    5.5510  -13.6990 N   0  0  0  0  0  0  0  0  0  0  0  0
   -3.6460    6.8970  -14.2260 C   0  0  0  0  0  0  0  0  0  0  0  0
  2  1  2  0
  3  2  1  0
  4  3  2  0
  5  1  1  0
  6  5  2  0
  6  4  1  0
  7  6  1  0
  8  7  2  0
  9  8  1  0
 10  5  1  0
 10  9  2  0
 11 10  1  0
 12 11  1  0
 13 11  1  0
 14 13  1  0
 15 14  1  0
 16 15  1  0
 16 12  1  0
M  END
>  <smiles>  (16) 
c1ccc2c(N3CCNCC3)ccnc2c1

>  <inchikey>  (16) 
CGSWRHKBLLDUHO-UHFFFAOYSA-N

>  <alias>  (16) 
Z0429a

$$$$
Z0435a
     RDKit          3D

 10 11  0  0  0  0  0  0  0  0999 V2000
   -6.0000    4.8570  -20.2200 N   0  0  0  0  0  0  0  0  0  0  0  0
   -5.9060    4.8640  -18.8880 C   0  0  0  0  0  0  0  0  0  0  0  0
   -7.0080    4.6800  -18.0650 N   0  0  0  0  0  0  0  0  0  0  0  0
   -6.4760    4.7220  -16.7770 C   0  0  0  0  0  0  0  0  0  0  0  0
   -5.1650    4.9140  -16.8190 N   0  0  0  0  0  0  0  0  0  0  0  0
   -4.8010    5.0010  -18.1660 N   0  0  0  0  0  0  0  0  0  0  0  0
   -8.3540    4.4700  -18.2970 C   0  0  0  0  0  0  0  0  0  0  0  0
   -9.1890    4.3000  -17.2470 C   0  0  0  0  0  0  0  0  0  0  0  0
   -8.6850    4.3300  -15.9240 C   0  0  0  0  0  0  0  0  0  0  0  0
   -7.3570    4.5320  -15.6840 C   0  0  0  0  0  0  0  0  0  0  0  0
  2  1  1  0
  3  2  1  0
  4  3  1  0
  5  4  2  0
  6  2  2  0
  6  5  1  0
  7  3  1  0
  8  7  2  0
  9  8  1  0
 10  4  1  0
 10  9  2  0
M  END
>  <smiles>  (17) 
Nc1nnc2ccccn12

>  <inchikey>  (17) 
NCZQAIFOXJOCFI-UHFFFAOYSA-N

>  <alias>  (17) 
Z0435a

$$$$
Z0455a
     RDKit          3D

 10 11  0  0  0  0  0  0  0  0999 V2000
   -7.4660    4.7530  -14.7890 C   0  0  0  0  0  0  0  0  0  0  0  0
   -5.9490    4.7480  -14.6660 C   0  0  0  0  0  0  0  0  0  0  0  0
   -7.9360    4.5950  -16.2090 C   0  0  0  0  0  0  0  0  0  0  0  0
   -7.0730    4.8630  -17.2870 C   0  0  0  0  0  0  0  0  0  0  0  0
   -5.7780    5.2760  -17.0920 N   0  0  0  0  0  0  0  0  0  0  0  0
   -5.2000    5.4800  -15.7700 C   0  0  0  0  0  0  0  0  0  0  0  0
   -9.1990    4.1740  -16.3760 N   0  0  0  0  0  0  0  0  0  0  0  0
   -9.6450    4.0080  -17.6310 C   0  0  0  0  0  0  0  0  0  0  0  0
   -8.8700    4.2340  -18.7470 C   0  0  0  0  0  0  0  0  0  0  0  0
   -7.5640    4.6630  -18.5740 C   0  0  0  0  0  0  0  0  0  0  0  0
  2  1  2  0
  3  1  1  0
  4  3  2  0
  5  4  1  0
  6  5  2  0
  6  2  1  0
  7  3  1  0
  8  7  1  0
  9  8  1  0
 10  9  1  0
 10  4  1  0
M  END
>  <smiles>  (18) 
c1cnc2c(c1)NCCC2

>  <inchikey>  (18) 
OALXTMWCXNPUKJ-UHFFFAOYSA-N

>  <alias>  (18) 
Z0455a

$$$$
Z0465a
     RDKit          3D

 13 14  0  0  0  0  0  0  0  0999 V2000
  -10.9440    4.9080  -17.8100 O   0  0  0  0  0  0  0  0  0  0  0  0
   -9.7400    5.0350  -17.7770 C   0  0  0  0  0  0  0  0  0  0  0  0
   -8.9760    5.0780  -16.4810 C   0  0  0  0  0  0  0  0  0  0  0  0
   -7.6250    4.3760  -16.5860 C   0  0  0  0  0  0  0  0  0  0  0  0
   -6.8750    4.8060  -17.7770 N   0  0  0  0  0  0  0  0  0  0  0  0
   -7.6310    4.4960  -18.9940 C   0  0  0  0  0  0  0  0  0  0  0  0
   -8.9400    5.2640  -19.0250 C   0  0  0  0  0  0  0  0  0  0  0  0
   -5.4820    4.8120  -17.7870 C   0  0  0  0  0  0  0  0  0  0  0  0
   -4.8890    4.8640  -19.0030 N   0  0  0  0  0  0  0  0  0  0  0  0
   -3.5440    4.8480  -19.0370 C   0  0  0  0  0  0  0  0  0  0  0  0
   -2.7440    4.7840  -17.9070 C   0  0  0  0  0  0  0  0  0  0  0  0
   -3.3610    4.7320  -16.6710 C   0  0  0  0  0  0  0  0  0  0  0  0
   -4.7470    4.7500  -16.5810 C   0  0  0  0  0  0  0  0  0  0  0  0
  2  1  2  0
  3  2  1  0
  4  3  1  0
  5  4  1  0
  6  5  1  0
  7  6  1  0
  7  2  1  0
  8  5  1  0
  9  8  2  0
 10  9  1  0
 11 10  2  0
 12 11  1  0
 13  8  1  0
 13 12  2  0
M  END
>  <smiles>  (19) 
O=C1CCN(c2ccccn2)CC1

>  <inchikey>  (19) 
CSNJUQMJDHNKHI-UHFFFAOYSA-N

>  <alias>  (19) 
Z0465a

$$$$
Z0472a
     RDKit          3D

 13 14  0  0  0  0  0  0  0  0999 V2000
   -2.8150    4.1160  -15.4000 N   0  0  0  0  0  0  0  0  0  0  0  0
   -2.5290    5.1790  -16.3620 C   0  0  0  0  0  0  0  0  0  0  0  0
   -3.4960    5.1420  -17.5570 C   0  0  2  0  0  0  0  0  0  0  0  0
   -3.0050    6.0920  -18.6360 C   0  0  0  0  0  0  0  0  0  0  0  0
   -4.9130    5.3210  -17.1590 N   0  0  0  0  0  0  0  0  0  0  0  0
   -5.9190    5.3630  -18.2420 C   0  0  0  0  0  0  0  0  0  0  0  0
   -7.2760    5.0220  -17.6790 C   0  0  0  0  0  0  0  0  0  0  0  0
   -8.4010    4.5830  -18.4330 C   0  0  0  0  0  0  0  0  0  0  0  0
   -9.4560    4.2690  -17.6510 C   0  0  0  0  0  0  0  0  0  0  0  0
   -9.1120    4.5000  -15.9910 S   0  0  0  0  0  0  0  0  0  0  0  0
   -7.5180    5.0470  -16.3420 C   0  0  0  0  0  0  0  0  0  0  0  0
   -6.5370    5.5120  -15.3070 C   0  0  0  0  0  0  0  0  0  0  0  0
   -5.3480    6.1450  -16.0200 C   0  0  0  0  0  0  0  0  0  0  0  0
  2  1  1  0
  3  2  1  0
  3  4  1  6
  5  3  1  0
  6  5  1  0
  7  6  1  0
  8  7  1  0
  9  8  2  0
 10  9  1  0
 11  7  2  0
 11 10  1  0
 12 11  1  0
 13 12  1  0
 13  5  1  0
M  END
>  <smiles>  (20) 
C[C@@H](CN)N1CCc2sccc2C1

>  <inchikey>  (20) 
MQKOIUAPLLHABT-QMMMGPOBSA-N

>  <alias>  (20) 
Z0472a

$$$$
Z0553a
     RDKit          3D

  9  9  0  0  0  0  0  0  0  0999 V2000
  -11.4050    4.1710  -18.4560 N   0  0  0  0  0  0  0  0  0  0  0  0
  -10.3300    4.2920  -18.0930 C   0  0  0  0  0  0  0  0  0  0  0  0
   -8.9860    4.4380  -17.5950 C   0  0  0  0  0  0  0  0  0  0  0  0
   -7.9440    4.7390  -18.4670 C   0  0  0  0  0  0  0  0  0  0  0  0
   -6.6870    4.9410  -17.9600 C   0  0  0  0  0  0  0  0  0  0  0  0
   -8.7230    4.3230  -16.2330 C   0  0  0  0  0  0  0  0  0  0  0  0
   -7.4430    4.5230  -15.7810 C   0  0  0  0  0  0  0  0  0  0  0  0
   -6.4470    4.8360  -16.6360 N   0  0  0  0  0  0  0  0  0  0  0  0
   -5.0820    5.0670  -16.1180 C   0  0  0  0  0  0  0  0  0  0  0  0
  2  1  3  0
  3  2  1  0
  4  3  2  0
  5  4  1  0
  6  3  1  0
  7  6  2  0
  8  5  2  0
  8  7  1  0
  9  8  1  0
M  CHG  1   8   1
M  END
>  <smiles>  (21) 
C[n+]1ccc(C#N)cc1

>  <inchikey>  (21) 
NQQUGKKTJLAUHC-UHFFFAOYSA-N

>  <alias>  (21) 
Z0553a

$$$$
Z0559a
     RDKit          3D

  7  7  0  0  0  0  0  0  0  0999 V2000
  -10.3570    4.1930  -18.0350 C   0  0  0  0  0  0  0  0  0  0  0  0
   -9.3000    4.2410  -18.7960 C   0  0  0  0  0  0  0  0  0  0  0  0
   -7.9960    4.5650  -18.3190 C   0  0  0  0  0  0  0  0  0  0  0  0
   -7.7370    4.8410  -16.9820 N   0  0  0  0  0  0  0  0  0  0  0  0
   -6.4400    5.0970  -16.9180 C   0  0  0  0  0  0  0  0  0  0  0  0
   -5.8520    5.0020  -18.1140 N   0  0  0  0  0  0  0  0  0  0  0  0
   -6.8220    4.6640  -19.0130 C   0  0  0  0  0  0  0  0  0  0  0  0
  2  1  2  0
  3  2  1  0
  4  3  1  0
  5  4  2  0
  6  5  1  0
  7  6  1  0
  7  3  2  0
M  END
>  <smiles>  (22) 
C=Cc1c[nH]cn1

>  <inchikey>  (22) 
MHQZDNQHLGFBRN-UHFFFAOYSA-N

>  <alias>  (22) 
Z0559a

$$$$
Z0589a
     RDKit          3D

  8  8  0  0  0  0  0  0  0  0999 V2000
  -10.4350    3.8480  -18.4710 Br  0  0  0  0  0  0  0  0  0  0  0  0
   -8.7540    4.3500  -17.7440 C   0  0  0  0  0  0  0  0  0  0  0  0
   -7.6840    4.5890  -18.5800 C   0  0  0  0  0  0  0  0  0  0  0  0
   -6.4870    4.9890  -18.0120 C   0  0  0  0  0  0  0  0  0  0  0  0
   -6.3890    5.1280  -16.6450 C   0  0  0  0  0  0  0  0  0  0  0  0
   -8.6400    4.4910  -16.3780 C   0  0  0  0  0  0  0  0  0  0  0  0
   -7.4560    4.8760  -15.8560 N   0  0  0  0  0  0  0  0  0  0  0  0
   -7.3340    5.0290  -14.3900 C   0  0  0  0  0  0  0  0  0  0  0  0
  2  1  1  0
  3  2  2  0
  4  3  1  0
  5  4  2  0
  6  2  1  0
  7  6  2  0
  7  5  1  0
  8  7  1  0
M  CHG  1   7   1
M  END
>  <smiles>  (23) 
C[n+]1cccc(Br)c1

>  <inchikey>  (23) 
HETQOWPCHKBEFO-UHFFFAOYSA-N

>  <alias>  (23) 
Z0589a

$$$$
Z0601a
     RDKit          3D

  9  9  0  0  0  0  0  0  0  0999 V2000
  -10.3010    4.2140  -18.2240 C   0  0  0  0  0  0  0  0  0  0  0  0
   -9.0500    4.3690  -18.5740 C   0  0  0  0  0  0  0  0  0  0  0  0
   -8.0460    4.5550  -17.5940 C   0  0  0  0  0  0  0  0  0  0  0  0
   -8.2510    4.3510  -16.2160 C   0  0  0  0  0  0  0  0  0  0  0  0
   -7.0270    4.5640  -15.6480 C   0  0  0  0  0  0  0  0  0  0  0  0
   -6.1770    4.8810  -16.6420 N   0  0  0  0  0  0  0  0  0  0  0  0
   -4.7560    5.1630  -16.4390 C   0  0  0  0  0  0  0  0  0  0  0  0
   -6.7730    4.8950  -17.8820 N   0  0  0  0  0  0  0  0  0  0  0  0
   -6.1070    5.2060  -19.1470 C   0  0  0  0  0  0  0  0  0  0  0  0
  2  1  2  0
  3  2  1  0
  4  3  2  0
  5  4  1  0
  6  5  2  0
  7  6  1  0
  8  6  1  0
  8  3  1  0
  9  8  1  0
M  CHG  1   6   1
M  END
>  <smiles>  (24) 
C=Cc1cc[n+](C)n1C

>  <inchikey>  (24) 
RGGYXESXCZRPIW-UHFFFAOYSA-N

>  <alias>  (24) 
Z0601a

$$$$
Z0605a
     RDKit          3D

  9  9  0  0  0  0  0  0  0  0999 V2000
  -10.5930    4.1240  -18.3990 C   0  0  0  0  0  0  0  0  0  0  0  0
   -9.8540    4.4140  -17.3760 C   0  0  0  0  0  0  0  0  0  0  0  0
   -8.3840    4.5270  -17.3590 C   0  0  0  0  0  0  0  0  0  0  0  0
   -7.6770    4.6740  -18.5460 C   0  0  0  0  0  0  0  0  0  0  0  0
   -6.3010    4.8310  -18.5350 C   0  0  0  0  0  0  0  0  0  0  0  0
   -5.6230    4.8390  -17.3380 C   0  0  0  0  0  0  0  0  0  0  0  0
   -7.6320    4.5350  -16.1490 C   0  0  0  0  0  0  0  0  0  0  0  0
   -6.2910    4.6920  -16.1740 N   0  0  0  0  0  0  0  0  0  0  0  0
   -5.5450    4.7070  -14.8990 C   0  0  0  0  0  0  0  0  0  0  0  0
  2  1  2  0
  3  2  1  0
  4  3  2  0
  5  4  1  0
  6  5  2  0
  7  3  1  0
  8  6  1  0
  8  7  2  0
  9  8  1  0
M  CHG  1   8   1
M  END
>  <smiles>  (25) 
C=Cc1ccc[n+](C)c1

>  <inchikey>  (25) 
WVZHSQIASVAADH-UHFFFAOYSA-N

>  <alias>  (25) 
Z0605a

$$$$
Z0673a
     RDKit          3D

 15 16  0  0  0  0  0  0  0  0999 V2000
  -10.9930    3.8520  -17.9750 O   0  0  0  0  0  0  0  0  0  0  0  0
   -9.7930    4.0050  -17.7970 C   0  0  0  0  0  0  0  0  0  0  0  0
   -8.8600    4.1180  -18.9650 C   0  0  0  0  0  0  0  0  0  0  0  0
   -7.6080    4.9530  -18.6770 C   0  0  0  0  0  0  0  0  0  0  0  0
   -9.2950    4.1230  -16.5780 N   0  0  0  0  0  0  0  0  0  0  0  0
   -8.1060    4.8910  -16.2180 C   0  0  0  0  0  0  0  0  0  0  0  0
   -7.0260    4.7750  -17.2800 C   0  0  2  0  0  0  0  0  0  0  0  0
   -5.9950    5.7780  -17.0280 N   0  0  0  0  0  0  0  0  0  0  0  0
   -4.9890    5.5670  -16.1710 C   0  0  0  0  0  0  0  0  0  0  0  0
   -5.1440    5.4510  -14.9520 O   0  0  0  0  0  0  0  0  0  0  0  0
   -3.6520    5.4560  -16.7990 C   0  0  0  0  0  0  0  0  0  0  0  0
   -3.5190    4.9830  -18.0950 N   0  0  0  0  0  0  0  0  0  0  0  0
   -2.2620    4.9840  -18.4280 C   0  0  0  0  0  0  0  0  0  0  0  0
   -1.1770    5.5420  -17.2320 S   0  0  0  0  0  0  0  0  0  0  0  0
   -2.4940    5.8000  -16.1860 C   0  0  0  0  0  0  0  0  0  0  0  0
  2  1  2  0
  3  2  1  0
  4  3  1  0
  5  2  1  0
  6  5  1  0
  7  4  1  0
  7  6  1  0
  7  8  1  1
  9  8  1  0
 10  9  2  0
 11  9  1  0
 12 11  1  0
 13 12  2  0
 14 13  1  0
 15 14  1  0
 15 11  2  0
M  END
>  <smiles>  (26) 
O=C1CC[C@@H](NC(=O)c2cscn2)CN1

>  <inchikey>  (26) 
MTDCJLXPYPQTPX-ZCFIWIBFSA-N

>  <alias>  (26) 
Z0673a

$$$$
Z0673b
     RDKit          3D

 15 16  0  0  0  0  0  0  0  0999 V2000
   -6.7060   -1.7300    4.3600 O   0  0  0  0  0  0  0  0  0  0  0  0
   -6.8070   -0.6590    3.7660 C   0  0  0  0  0  0  0  0  0  0  0  0
   -5.7470   -0.2210    2.7970 C   0  0  0  0  0  0  0  0  0  0  0  0
   -5.7730    1.2680    2.4180 C   0  0  0  0  0  0  0  0  0  0  0  0
   -7.8220    0.1480    3.9950 N   0  0  0  0  0  0  0  0  0  0  0  0
   -7.7710    1.6040    3.9050 C   0  0  0  0  0  0  0  0  0  0  0  0
   -7.0860    2.0360    2.6220 C   0  0  2  0  0  0  0  0  0  0  0  0
   -8.0110    1.8800    1.4980 N   0  0  0  0  0  0  0  0  0  0  0  0
   -8.4750    2.9250    0.7850 C   0  0  0  0  0  0  0  0  0  0  0  0
   -7.8950    3.3760   -0.2020 O   0  0  0  0  0  0  0  0  0  0  0  0
   -9.7490    3.5170    1.2640 C   0  0  0  0  0  0  0  0  0  0  0  0
  -10.5140    4.3100    0.4180 N   0  0  0  0  0  0  0  0  0  0  0  0
  -11.5610    4.7410    1.0590 C   0  0  0  0  0  0  0  0  0  0  0  0
  -11.7000    4.2330    2.6860 S   0  0  0  0  0  0  0  0  0  0  0  0
  -10.2440    3.3690    2.5190 C   0  0  0  0  0  0  0  0  0  0  0  0
  2  1  2  0
  3  2  1  0
  4  3  1  0
  5  2  1  0
  6  5  1  0
  7  6  1  0
  7  4  1  0
  7  8  1  6
  9  8  1  0
 10  9  2  0
 11  9  1  0
 12 11  1  0
 13 12  2  0
 14 13  1  0
 15 14  1  0
 15 11  2  0
M  END
>  <smiles>  (27) 
O=C1CC[C@@H](NC(=O)c2cscn2)CN1

>  <inchikey>  (27) 
MTDCJLXPYPQTPX-ZCFIWIBFSA-N

>  <alias>  (27) 
Z0673b

$$$$
Z0687a
     RDKit          3D

 11 11  0  0  0  0  0  0  0  0999 V2000
   -8.3620    3.8940  -14.9330 O   0  0  0  0  0  0  0  0  0  0  0  0
   -7.7590    4.9560  -14.8210 C   0  0  0  0  0  0  0  0  0  0  0  0
   -7.4580    5.5580  -13.4800 C   0  0  0  0  0  0  0  0  0  0  0  0
   -7.2780    5.6520  -15.8840 N   0  0  0  0  0  0  0  0  0  0  0  0
   -6.5910    5.2180  -17.0470 C   0  0  0  0  0  0  0  0  0  0  0  0
   -7.3110    4.7810  -18.1660 C   0  0  0  0  0  0  0  0  0  0  0  0
   -8.7820    4.4550  -18.1090 C   0  0  0  0  0  0  0  0  0  0  0  0
   -6.5850    4.6200  -19.3410 C   0  0  0  0  0  0  0  0  0  0  0  0
   -5.2710    4.8290  -19.4620 N   0  0  0  0  0  0  0  0  0  0  0  0
   -4.6110    5.1990  -18.3600 C   0  0  0  0  0  0  0  0  0  0  0  0
   -5.2150    5.4020  -17.1350 C   0  0  0  0  0  0  0  0  0  0  0  0
  2  1  2  0
  3  2  1  0
  4  2  1  0
  5  4  1  0
  6  5  2  0
  7  6  1  0
  8  6  1  0
  9  8  2  0
 10  9  1  0
 11  5  1  0
 11 10  2  0
M  END
>  <smiles>  (28) 
CC(=O)Nc1ccncc1C

>  <inchikey>  (28) 
DHUDCBCQKIWLSB-UHFFFAOYSA-N

>  <alias>  (28) 
Z0687a

$$$$
Z0693a
     RDKit          3D

 10 10  0  0  0  0  0  0  0  0999 V2000
   -9.1870    4.2870  -18.2370 O   0  0  0  0  0  0  0  0  0  0  0  0
   -8.6130    4.5720  -17.1830 C   0  0  0  0  0  0  0  0  0  0  0  0
   -9.0410    4.1930  -15.9570 N   0  0  0  0  0  0  0  0  0  0  0  0
   -8.1250    4.6460  -15.0120 N   0  0  0  0  0  0  0  0  0  0  0  0
   -7.3680    5.3100  -16.9810 C   0  0  0  0  0  0  0  0  0  0  0  0
   -7.1210    5.3060  -15.6120 C   0  0  0  0  0  0  0  0  0  0  0  0
   -5.9800    5.8660  -14.8250 C   0  0  0  0  0  0  0  0  0  0  0  0
   -6.6240    5.9410  -18.1230 C   0  0  0  0  0  0  0  0  0  0  0  0
   -5.9980    4.9330  -19.0350 C   0  0  0  0  0  0  0  0  0  0  0  0
   -6.5370    5.0400  -20.3410 O   0  0  0  0  0  0  0  0  0  0  0  0
  2  1  2  0
  3  2  1  0
  4  3  1  0
  5  2  1  0
  6  5  2  0
  6  4  1  0
  7  6  1  0
  8  5  1  0
  9  8  1  0
 10  9  1  0
M  END
>  <smiles>  (29) 
Cc1[nH][nH]c(=O)c1CCO

>  <inchikey>  (29) 
DJBJHPDVWKRAJB-UHFFFAOYSA-N

>  <alias>  (29) 
Z0693a

$$$$
Z0701a
     RDKit          3D

 11 12  0  0  0  0  0  0  0  0999 V2000
   -3.4950    5.2530  -16.0010 N   0  0  0  0  0  0  0  0  0  0  0  0
   -4.3700    5.1760  -16.7390 C   0  0  0  0  0  0  0  0  0  0  0  0
   -5.5090    5.0460  -17.6290 C   0  0  0  0  0  0  0  0  0  0  0  0
   -6.8660    4.7610  -17.3090 C   0  0  0  0  0  0  0  0  0  0  0  0
   -7.5160    4.6360  -18.5480 C   0  0  0  0  0  0  0  0  0  0  0  0
   -6.5710    4.8560  -19.5010 N   0  0  0  0  0  0  0  0  0  0  0  0
   -5.3410    5.1130  -18.9540 N   0  0  0  0  0  0  0  0  0  0  0  0
   -7.5950    4.5450  -16.1450 C   0  0  0  0  0  0  0  0  0  0  0  0
   -8.9330    4.1970  -16.2330 C   0  0  0  0  0  0  0  0  0  0  0  0
   -9.5590    4.0770  -17.4650 C   0  0  0  0  0  0  0  0  0  0  0  0
   -8.8600    4.3000  -18.6380 C   0  0  0  0  0  0  0  0  0  0  0  0
  2  1  3  0
  3  2  1  0
  4  3  1  0
  5  4  2  0
  6  5  1  0
  7  6  1  0
  7  3  2  0
  8  4  1  0
  9  8  2  0
 10  9  1  0
 11 10  2  0
 11  5  1  0
M  END
>  <smiles>  (30) 
N#Cc1n[nH]c2ccccc12

>  <inchikey>  (30) 
REHRQXVEAXFIML-UHFFFAOYSA-N

>  <alias>  (30) 
Z0701a

$$$$
Z0709a
     RDKit          3D

 14 15  0  0  0  0  0  0  0  0999 V2000
   -5.0290    7.7250  -13.8340 O   0  0  0  0  0  0  0  0  0  0  0  0
   -4.7430    7.4130  -14.9760 C   0  0  0  0  0  0  0  0  0  0  0  0
   -4.9210    8.2170  -16.0060 O   0  0  0  0  0  0  0  0  0  0  0  0
   -4.1480    6.0630  -15.3090 C   0  0  0  0  0  0  0  0  0  0  0  0
   -4.6900    5.4970  -16.5270 N   0  0  0  0  0  0  0  0  0  0  0  0
   -3.8860    5.2530  -17.6110 N   0  0  0  0  0  0  0  0  0  0  0  0
   -4.6860    4.8620  -18.5800 C   0  0  0  0  0  0  0  0  0  0  0  0
   -6.0340    4.8300  -18.1510 C   0  0  0  0  0  0  0  0  0  0  0  0
   -5.9870    5.2360  -16.8170 C   0  0  0  0  0  0  0  0  0  0  0  0
   -7.0370    5.3160  -15.9980 N   0  0  0  0  0  0  0  0  0  0  0  0
   -8.2150    4.9620  -16.5530 C   0  0  0  0  0  0  0  0  0  0  0  0
   -7.2690    4.4830  -18.6790 C   0  0  0  0  0  0  0  0  0  0  0  0
   -8.3980    4.5420  -17.8760 C   0  0  0  0  0  0  0  0  0  0  0  0
   -9.7560    4.1590  -18.4060 C   0  0  0  0  0  0  0  0  0  0  0  0
  2  1  2  0
  3  2  1  0
  4  2  1  0
  5  4  1  0
  6  5  1  0
  7  6  2  0
  8  7  1  0
  9  8  2  0
  9  5  1  0
 10  9  1  0
 11 10  2  0
 12  8  1  0
 13 12  2  0
 13 11  1  0
 14 13  1  0
M  END
>  <smiles>  (31) 
Cc1cnc2c(cnn2CC(=O)O)c1

>  <inchikey>  (31) 
KICZOAAIQKXMFG-UHFFFAOYSA-N

>  <alias>  (31) 
Z0709a

$$$$
Z0719a
     RDKit          3D

 10 10  0  0  0  0  0  0  0  0999 V2000
   -6.8840    1.8240  -13.6620 O   0  0  0  0  0  0  0  0  0  0  0  0
   -5.9580    2.6160  -13.8320 C   0  0  0  0  0  0  0  0  0  0  0  0
   -4.6280    2.4400  -13.1550 C   0  0  0  0  0  0  0  0  0  0  0  0
   -6.0740    3.6760  -14.6430 N   0  0  0  0  0  0  0  0  0  0  0  0
   -7.3490    4.3400  -14.8410 C   0  0  0  0  0  0  0  0  0  0  0  0
   -7.8410    4.3230  -16.3040 C   0  0  0  0  0  0  0  0  0  0  0  0
   -7.1510    4.8610  -17.3300 N   0  0  0  0  0  0  0  0  0  0  0  0
   -7.9690    4.8520  -18.4230 C   0  0  0  0  0  0  0  0  0  0  0  0
   -9.1340    4.2990  -18.0220 C   0  0  0  0  0  0  0  0  0  0  0  0
   -9.0590    3.9510  -16.6920 N   0  0  0  0  0  0  0  0  0  0  0  0
  2  1  2  0
  3  2  1  0
  4  2  1  0
  5  4  1  0
  6  5  1  0
  7  6  2  0
  8  7  1  0
  9  8  2  0
 10  9  1  0
 10  6  1  0
M  END
>  <smiles>  (32) 
CC(=O)NCc1ncc[nH]1

>  <inchikey>  (32) 
SXKAQLCLHGQXHB-UHFFFAOYSA-N

>  <alias>  (32) 
Z0719a

$$$$
Z0727a
     RDKit          3D

 12 13  0  0  0  0  0  0  0  0999 V2000
   -3.1970    5.0240  -15.3030 C   0  0  0  0  0  0  0  0  0  0  0  0
   -4.6070    5.2200  -15.5700 N   0  0  0  0  0  0  0  0  0  0  0  0
   -5.1500    5.1080  -16.8010 C   0  0  0  0  0  0  0  0  0  0  0  0
   -6.5610    4.8380  -16.9390 C   0  0  0  0  0  0  0  0  0  0  0  0
   -7.0780    4.7340  -18.2600 C   0  0  0  0  0  0  0  0  0  0  0  0
   -6.1930    4.8980  -19.3470 C   0  0  0  0  0  0  0  0  0  0  0  0
   -4.8830    5.1530  -19.1030 C   0  0  0  0  0  0  0  0  0  0  0  0
   -4.3570    5.2580  -17.8720 N   0  0  0  0  0  0  0  0  0  0  0  0
   -7.4620    4.6670  -15.8580 C   0  0  0  0  0  0  0  0  0  0  0  0
   -8.7860    4.4200  -16.0760 C   0  0  0  0  0  0  0  0  0  0  0  0
   -9.2830    4.3250  -17.3650 C   0  0  0  0  0  0  0  0  0  0  0  0
   -8.4570    4.4730  -18.4380 C   0  0  0  0  0  0  0  0  0  0  0  0
  2  1  1  0
  3  2  1  0
  4  3  2  0
  5  4  1  0
  6  5  2  0
  7  6  1  0
  8  7  2  0
  8  3  1  0
  9  4  1  0
 10  9  2  0
 11 10  1  0
 12 11  2  0
 12  5  1  0
M  END
>  <smiles>  (33) 
CNc1nccc2ccccc12

>  <inchikey>  (33) 
BILUZSWZYDFPMN-UHFFFAOYSA-N

>  <alias>  (33) 
Z0727a

$$$$
Z0772a
     RDKit          3D

 13 14  0  0  0  0  0  0  0  0999 V2000
   -6.2820    3.8240  -12.5210 O   0  0  0  0  0  0  0  0  0  0  0  0
   -7.4830    4.5530  -12.8090 S   0  0  1  0  0  0  0  0  0  0  0  0
   -8.7420    3.9410  -12.4980 O   0  0  0  0  0  0  0  0  0  0  0  0
   -7.4140    5.9370  -12.0000 N   0  0  0  0  0  0  0  0  0  0  0  0
   -7.4820    4.9130  -14.5390 C   0  0  0  0  0  0  0  0  0  0  0  0
   -8.5960    4.5740  -15.2910 C   0  0  0  0  0  0  0  0  0  0  0  0
   -8.4890    4.6050  -16.6720 C   0  0  0  0  0  0  0  0  0  0  0  0
   -9.6280    4.0600  -17.8610 S   0  0  0  0  0  0  0  0  0  0  0  0
   -8.4510    4.3970  -19.0870 C   0  0  0  0  0  0  0  0  0  0  0  0
   -7.3220    4.8820  -18.6990 N   0  0  0  0  0  0  0  0  0  0  0  0
   -7.3120    5.0110  -17.3090 C   0  0  0  0  0  0  0  0  0  0  0  0
   -6.2320    5.4230  -16.5290 C   0  0  0  0  0  0  0  0  0  0  0  0
   -6.3150    5.3690  -15.1460 C   0  0  0  0  0  0  0  0  0  0  0  0
  2  1  2  0
  3  2  2  0
  2  4  1  1
  5  2  1  0
  6  5  2  0
  7  6  1  0
  8  7  1  0
  9  8  1  0
 10  9  2  0
 11 10  1  0
 11  7  2  0
 12 11  1  0
 13 12  2  0
 13  5  1  0
M  END
>  <smiles>  (34) 
NS(=O)(=O)c1ccc2ncsc2c1

>  <inchikey>  (34) 
KRRLILAOGRCMFH-UHFFFAOYSA-N

>  <alias>  (34) 
Z0772a

$$$$
Z0773b
     RDKit          3D

 14 15  0  0  0  0  0  0  0  0999 V2000
  -23.1360    3.3800    2.7760 O   0  0  0  0  0  0  0  0  0  0  0  0
  -23.2960    3.5030    1.3550 S   0  0  1  0  0  0  0  0  0  0  0  0
  -23.9620    2.4370    0.6520 O   0  0  0  0  0  0  0  0  0  0  0  0
  -24.1380    4.9970    1.0150 C   0  0  0  0  0  0  0  0  0  0  0  0
  -21.6830    3.6830    0.6400 C   0  0  0  0  0  0  0  0  0  0  0  0
  -21.1610    4.9710    0.3410 C   0  0  0  0  0  0  0  0  0  0  0  0
  -21.9410    6.0750    0.5340 N   0  0  0  0  0  0  0  0  0  0  0  0
  -21.4030    7.2490    0.2690 C   0  0  0  0  0  0  0  0  0  0  0  0
  -20.1080    7.4300   -0.1790 C   0  0  0  0  0  0  0  0  0  0  0  0
  -19.3240    6.3370   -0.3870 C   0  0  0  0  0  0  0  0  0  0  0  0
  -19.8290    5.0500   -0.1310 C   0  0  0  0  0  0  0  0  0  0  0  0
  -19.0720    3.8640   -0.2770 C   0  0  0  0  0  0  0  0  0  0  0  0
  -19.6160    2.6510    0.0290 C   0  0  0  0  0  0  0  0  0  0  0  0
  -20.9270    2.5560    0.4660 C   0  0  0  0  0  0  0  0  0  0  0  0
  2  1  2  0
  3  2  2  0
  2  4  1  1
  5  2  1  0
  6  5  2  0
  7  6  1  0
  8  7  2  0
  9  8  1  0
 10  9  2  0
 11  6  1  0
 11 10  1  0
 12 11  2  0
 13 12  1  0
 14 13  2  0
 14  5  1  0
M  END
>  <smiles>  (35) 
CS(=O)(=O)c1cccc2cccnc12

>  <inchikey>  (35) 
RPUNNHCLJDHINC-UHFFFAOYSA-N

>  <alias>  (35) 
Z0773b

$$$$
Z0773a
     RDKit          3D

 14 15  0  0  0  0  0  0  0  0999 V2000
   -5.4120    5.2740  -14.5790 O   0  0  0  0  0  0  0  0  0  0  0  0
   -4.8410    6.1150  -15.5940 S   0  0  1  0  0  0  0  0  0  0  0  0
   -5.0520    7.5320  -15.4910 O   0  0  0  0  0  0  0  0  0  0  0  0
   -3.1120    5.8180  -15.6410 C   0  0  0  0  0  0  0  0  0  0  0  0
   -5.4490    5.5750  -17.1750 C   0  0  0  0  0  0  0  0  0  0  0  0
   -6.7820    5.1140  -17.3820 C   0  0  0  0  0  0  0  0  0  0  0  0
   -7.6720    5.1320  -16.3470 N   0  0  0  0  0  0  0  0  0  0  0  0
   -8.8840    4.6610  -16.5780 C   0  0  0  0  0  0  0  0  0  0  0  0
   -9.3080    4.1620  -17.7940 C   0  0  0  0  0  0  0  0  0  0  0  0
   -8.4360    4.1460  -18.8380 C   0  0  0  0  0  0  0  0  0  0  0  0
   -7.1210    4.6310  -18.6680 C   0  0  0  0  0  0  0  0  0  0  0  0
   -6.1430    4.6390  -19.6900 C   0  0  0  0  0  0  0  0  0  0  0  0
   -4.8890    5.1120  -19.4500 C   0  0  0  0  0  0  0  0  0  0  0  0
   -4.5380    5.5810  -18.1960 C   0  0  0  0  0  0  0  0  0  0  0  0
  2  1  2  0
  3  2  2  0
  2  4  1  6
  5  2  1  0
  6  5  2  0
  7  6  1  0
  8  7  2  0
  9  8  1  0
 10  9  2  0
 11 10  1  0
 11  6  1  0
 12 11  2  0
 13 12  1  0
 14 13  2  0
 14  5  1  0
M  END
>  <smiles>  (36) 
CS(=O)(=O)c1cccc2cccnc12

>  <inchikey>  (36) 
RPUNNHCLJDHINC-UHFFFAOYSA-N

>  <alias>  (36) 
Z0773a

$$$$
Z0788b
     RDKit          3D

 15 16  0  0  0  0  0  0  0  0999 V2000
   -6.1400    9.7380  -24.2650 O   0  0  0  0  0  0  0  0  0  0  0  0
   -6.1520    9.1740  -25.5840 S   0  0  1  0  0  0  0  0  0  0  0  0
   -5.1390    9.5890  -26.5090 O   0  0  0  0  0  0  0  0  0  0  0  0
   -6.1020    7.4280  -25.4400 C   0  0  0  0  0  0  0  0  0  0  0  0
   -7.7270    9.5820  -26.3080 C   0  0  0  0  0  0  0  0  0  0  0  0
   -8.6570    8.7180  -26.8240 N   0  0  0  0  0  0  0  0  0  0  0  0
   -9.7840    9.4560  -27.1000 C   0  0  0  0  0  0  0  0  0  0  0  0
   -9.4800   10.7330  -26.7810 C   0  0  0  0  0  0  0  0  0  0  0  0
   -8.1940   10.8180  -26.2960 N   0  0  0  0  0  0  0  0  0  0  0  0
   -8.4780    7.2950  -27.1050 C   0  0  0  0  0  0  0  0  0  0  0  0
   -8.0510    6.9110  -28.4910 C   0  0  0  0  0  0  0  0  0  0  0  0
   -6.7040    6.8250  -28.7970 N   0  0  0  0  0  0  0  0  0  0  0  0
   -6.5600    6.3390  -29.9920 C   0  0  0  0  0  0  0  0  0  0  0  0
   -8.0070    5.9870  -30.8270 S   0  0  0  0  0  0  0  0  0  0  0  0
   -8.8880    6.5160  -29.4770 C   0  0  0  0  0  0  0  0  0  0  0  0
  2  1  2  0
  3  2  2  0
  2  4  1  1
  5  2  1  0
  6  5  1  0
  7  6  1  0
  8  7  2  0
  9  8  1  0
  9  5  2  0
 10  6  1  0
 11 10  1  0
 12 11  1  0
 13 12  2  0
 14 13  1  0
 15 14  1  0
 15 11  2  0
M  END
>  <smiles>  (37) 
CS(=O)(=O)c1nccn1Cc1cscn1

>  <inchikey>  (37) 
DWPGGNJRLYKHCD-UHFFFAOYSA-N

>  <alias>  (37) 
Z0788b

$$$$
Z0788a
     RDKit          3D

 15 16  0  0  0  0  0  0  0  0999 V2000
   -3.9800    4.3290  -16.4180 O   0  0  0  0  0  0  0  0  0  0  0  0
   -3.2600    5.1500  -17.3500 S   0  0  1  0  0  0  0  0  0  0  0  0
   -2.1020    5.8550  -16.8800 O   0  0  0  0  0  0  0  0  0  0  0  0
   -2.7940    4.1700  -18.7280 C   0  0  0  0  0  0  0  0  0  0  0  0
   -4.3960    6.3680  -17.9730 C   0  0  0  0  0  0  0  0  0  0  0  0
   -5.6970    6.2100  -18.3750 N   0  0  0  0  0  0  0  0  0  0  0  0
   -6.1090    7.4250  -18.8710 C   0  0  0  0  0  0  0  0  0  0  0  0
   -5.0540    8.2600  -18.7380 C   0  0  0  0  0  0  0  0  0  0  0  0
   -3.9850    7.6060  -18.1730 N   0  0  0  0  0  0  0  0  0  0  0  0
   -6.2860    4.9200  -18.7160 C   0  0  0  0  0  0  0  0  0  0  0  0
   -7.6280    4.7210  -18.0840 C   0  0  0  0  0  0  0  0  0  0  0  0
   -7.7680    4.6520  -16.7070 N   0  0  0  0  0  0  0  0  0  0  0  0
   -9.0010    4.3690  -16.4130 C   0  0  0  0  0  0  0  0  0  0  0  0
  -10.0620    4.2030  -17.7430 S   0  0  0  0  0  0  0  0  0  0  0  0
   -8.7620    4.5130  -18.7870 C   0  0  0  0  0  0  0  0  0  0  0  0
  2  1  2  0
  3  2  2  0
  2  4  1  6
  5  2  1  0
  6  5  1  0
  7  6  1  0
  8  7  2  0
  9  8  1  0
  9  5  2  0
 10  6  1  0
 11 10  1  0
 12 11  1  0
 13 12  2  0
 14 13  1  0
 15 14  1  0
 15 11  2  0
M  END
>  <smiles>  (38) 
CS(=O)(=O)c1nccn1Cc1cscn1

>  <inchikey>  (38) 
DWPGGNJRLYKHCD-UHFFFAOYSA-N

>  <alias>  (38) 
Z0788a

$$$$
Z0800a
     RDKit          3D

 11 12  0  0  0  0  0  0  0  0999 V2000
   -3.1450    5.0080  -19.0070 O   0  0  0  0  0  0  0  0  0  0  0  0
   -3.7230    4.9480  -17.9030 C   0  0  0  0  0  0  0  0  0  0  0  0
   -3.0890    4.6840  -16.7640 N   0  0  0  0  0  0  0  0  0  0  0  0
   -5.1880    5.2050  -17.7970 C   0  0  0  0  0  0  0  0  0  0  0  0
   -6.0670    4.8530  -18.8190 N   0  0  0  0  0  0  0  0  0  0  0  0
   -7.2390    4.7110  -18.2190 C   0  0  0  0  0  0  0  0  0  0  0  0
   -7.1590    4.9560  -16.8950 N   0  0  0  0  0  0  0  0  0  0  0  0
   -5.8680    5.2640  -16.6170 C   0  0  0  0  0  0  0  0  0  0  0  0
   -8.5130    4.3300  -18.8300 C   0  0  2  0  0  0  0  0  0  0  0  0
   -9.7840    4.9900  -18.3760 C   0  0  0  0  0  0  0  0  0  0  0  0
   -9.5360    3.5760  -18.0300 C   0  0  0  0  0  0  0  0  0  0  0  0
  2  1  2  0
  3  2  1  0
  4  2  1  0
  5  4  1  0
  6  5  2  0
  7  6  1  0
  8  7  1  0
  8  4  2  0
  9  6  1  1
 10  9  1  0
 11 10  1  0
 11  9  1  0
M  END
>  <smiles>  (39) 
NC(=O)c1c[nH]c(C2CC2)n1

>  <inchikey>  (39) 
ZIJDZTAYMWKMQH-UHFFFAOYSA-N

>  <alias>  (39) 
Z0800a

$$$$
Z0806a
     RDKit          3D

 14 15  0  0  0  0  0  0  0  0999 V2000
   -3.8950    6.2800  -23.2330 N   0  0  0  0  0  0  0  0  0  0  0  0
   -3.8800    7.7260  -23.4870 C   0  0  1  0  0  0  0  0  0  0  0  0
   -2.4800    8.1480  -23.9180 C   0  0  0  0  0  0  0  0  0  0  0  0
   -4.8200    7.9580  -24.6350 C   0  0  0  0  0  0  0  0  0  0  0  0
   -4.6070    7.3230  -25.8180 N   0  0  0  0  0  0  0  0  0  0  0  0
   -5.5850    7.6110  -26.6440 N   0  0  0  0  0  0  0  0  0  0  0  0
   -6.4420    8.4190  -25.9780 N   0  0  0  0  0  0  0  0  0  0  0  0
   -5.9760    8.6770  -24.7360 C   0  0  0  0  0  0  0  0  0  0  0  0
   -7.7250    8.6940  -26.5340 C   0  0  0  0  0  0  0  0  0  0  0  0
   -8.2890    9.9530  -26.3870 C   0  0  0  0  0  0  0  0  0  0  0  0
   -9.5910   10.1650  -26.8000 C   0  0  0  0  0  0  0  0  0  0  0  0
  -10.3220    9.1410  -27.3610 C   0  0  0  0  0  0  0  0  0  0  0  0
   -9.7440    7.9040  -27.5500 C   0  0  0  0  0  0  0  0  0  0  0  0
   -8.4430    7.6730  -27.1400 C   0  0  0  0  0  0  0  0  0  0  0  0
  2  1  1  0
  2  3  1  6
  4  2  1  0
  5  4  1  0
  6  5  2  0
  7  6  1  0
  8  7  1  0
  8  4  2  0
  9  7  1  0
 10  9  2  0
 11 10  1  0
 12 11  2  0
 13 12  1  0
 14 13  2  0
 14  9  1  0
M  END
>  <smiles>  (40) 
C[C@H](N)c1cn(-c2ccccc2)nn1

>  <inchikey>  (40) 
WHLMWNCAOOBOTJ-QMMMGPOBSA-N

>  <alias>  (40) 
Z0806a

$$$$
Z0819a
     RDKit          3D

 11 11  0  0  0  0  0  0  0  0999 V2000
  -10.4690    5.9040  -17.7160 O   0  0  0  0  0  0  0  0  0  0  0  0
   -9.2510    5.1610  -17.7990 S   0  0  2  0  0  0  0  0  0  0  0  0
   -9.2710    3.8720  -18.4170 O   0  0  0  0  0  0  0  0  0  0  0  0
   -8.6050    4.9860  -16.1820 C   0  0  0  0  0  0  0  0  0  0  0  0
   -8.2040    6.0690  -18.6390 N   0  0  0  0  0  0  0  0  0  0  0  0
   -6.7440    6.0560  -18.4340 C   0  0  1  0  0  0  0  0  0  0  0  0
   -6.1470    4.7780  -19.0140 C   0  0  0  0  0  0  0  0  0  0  0  0
   -4.6290    4.8080  -18.9370 C   0  0  0  0  0  0  0  0  0  0  0  0
   -4.0970    6.0010  -19.6250 N   0  0  0  0  0  0  0  0  0  0  0  0
   -4.6060    7.2410  -19.0070 C   0  0  0  0  0  0  0  0  0  0  0  0
   -6.1230    7.2920  -19.0800 C   0  0  0  0  0  0  0  0  0  0  0  0
  2  1  2  0
  3  2  2  0
  2  4  1  1
  5  2  1  0
  6  5  1  6
  7  6  1  0
  8  7  1  0
  9  8  1  0
 10  9  1  0
 11  6  1  0
 11 10  1  0
M  END
>  <smiles>  (41) 
CS(=O)(=O)NC1CCNCC1

>  <inchikey>  (41) 
NAEICDPYHCEZMG-UHFFFAOYSA-N

>  <alias>  (41) 
Z0819a

$$$$
Z0827a
     RDKit          3D

 15 17  0  0  0  0  0  0  0  0999 V2000
   -5.6650    5.9410  -16.3950 C   0  0  0  0  0  0  0  0  0  0  0  0
   -5.1380    5.8180  -17.6380 C   0  0  0  0  0  0  0  0  0  0  0  0
   -6.0550    5.2530  -18.4840 N   0  0  0  0  0  0  0  0  0  0  0  0
   -7.0010    5.4120  -16.4560 C   0  0  0  0  0  0  0  0  0  0  0  0
   -7.2100    4.9870  -17.7860 C   0  0  0  0  0  0  0  0  0  0  0  0
   -8.3850    4.3690  -18.1920 C   0  0  0  0  0  0  0  0  0  0  0  0
   -9.3610    4.1270  -17.2470 C   0  0  0  0  0  0  0  0  0  0  0  0
   -9.1800    4.5200  -15.9320 C   0  0  0  0  0  0  0  0  0  0  0  0
   -8.0320    5.1860  -15.5170 C   0  0  0  0  0  0  0  0  0  0  0  0
   -7.9580    5.7230  -14.0920 C   0  0  1  0  0  0  0  0  0  0  0  0
   -8.2460    4.6490  -13.0310 C   0  0  0  0  0  0  0  0  0  0  0  0
   -7.9160    5.1390  -11.6210 C   0  0  0  0  0  0  0  0  0  0  0  0
   -6.7290    6.5650  -13.7140 C   0  0  0  0  0  0  0  0  0  0  0  0
   -5.8220    5.8110  -12.8380 N   0  0  0  0  0  0  0  0  0  0  0  0
   -6.4360    5.5190  -11.5180 C   0  0  0  0  0  0  0  0  0  0  0  0
  2  1  2  0
  3  2  1  0
  4  1  1  0
  5  4  2  0
  5  3  1  0
  6  5  1  0
  7  6  2  0
  8  7  1  0
  9  4  1  0
  9  8  2  0
 10  9  1  6
 11 10  1  0
 12 11  1  0
 13 10  1  0
 14 13  1  0
 15 12  1  0
 15 14  1  0
M  END
>  <smiles>  (42) 
c1cc([C@H]2CCCNC2)c2cc[nH]c2c1

>  <inchikey>  (42) 
JWMGZQMVMZBMFM-JTQLQIEISA-N

>  <alias>  (42) 
Z0827a

$$$$
Z0846b
     RDKit          3D

 18 20  0  0  0  0  0  0  0  0999 V2000
  -13.1790    9.9540  -12.1710 O   0  0  0  0  0  0  0  0  0  0  0  0
  -11.9900    9.3010  -12.1620 C   0  0  0  0  0  0  0  0  0  0  0  0
  -11.1360    9.4140  -11.0590 C   0  0  0  0  0  0  0  0  0  0  0  0
   -9.8960    8.7790  -11.1170 C   0  0  0  0  0  0  0  0  0  0  0  0
   -9.5210    8.0410  -12.2310 C   0  0  0  0  0  0  0  0  0  0  0  0
  -10.3830    7.9170  -13.3010 C   0  0  0  0  0  0  0  0  0  0  0  0
  -11.6150    8.5470  -13.2730 C   0  0  0  0  0  0  0  0  0  0  0  0
  -11.5600   10.2080   -9.8410 C   0  0  0  0  0  0  0  0  0  0  0  0
  -11.5650   11.6500  -10.0610 N   0  0  0  0  0  0  0  0  0  0  0  0
  -12.6150   12.4400   -9.8010 C   0  0  0  0  0  0  0  0  0  0  0  0
  -12.4780   13.7860   -9.7440 N   0  0  0  0  0  0  0  0  0  0  0  0
  -13.7360   14.3140   -9.5180 C   0  0  0  0  0  0  0  0  0  0  0  0
  -14.5970   13.2200   -9.4580 C   0  0  0  0  0  0  0  0  0  0  0  0
  -13.8690   12.0400   -9.6260 N   0  0  0  0  0  0  0  0  0  0  0  0
  -14.1920   15.6160   -9.3670 C   0  0  0  0  0  0  0  0  0  0  0  0
  -15.5510   15.8140   -9.1580 C   0  0  0  0  0  0  0  0  0  0  0  0
  -16.4290   14.7310   -9.1230 C   0  0  0  0  0  0  0  0  0  0  0  0
  -15.9630   13.4290   -9.2730 C   0  0  0  0  0  0  0  0  0  0  0  0
  2  1  1  0
  3  2  2  0
  4  3  1  0
  5  4  2  0
  6  5  1  0
  7  2  1  0
  7  6  2  0
  8  3  1  0
  9  8  1  0
 10  9  1  0
 11 10  2  0
 12 11  1  0
 13 12  2  0
 14 13  1  0
 14 10  1  0
 15 12  1  0
 16 15  2  0
 17 16  1  0
 18 17  2  0
 18 13  1  0
M  END
>  <smiles>  (43) 
Oc1ccccc1CNc1nc2ccccc2[nH]1

>  <inchikey>  (43) 
OCDMDLRMBVJKCG-UHFFFAOYSA-N

>  <alias>  (43) 
Z0846b

$$$$
Z0846a
     RDKit          3D

 18 20  0  0  0  0  0  0  0  0999 V2000
   -6.1280    7.4260  -24.3630 O   0  0  0  0  0  0  0  0  0  0  0  0
   -5.4650    7.8680  -23.2660 C   0  0  0  0  0  0  0  0  0  0  0  0
   -5.1530    9.2250  -23.1380 C   0  0  0  0  0  0  0  0  0  0  0  0
   -4.4440    9.6350  -22.0120 C   0  0  0  0  0  0  0  0  0  0  0  0
   -4.0640    8.7270  -21.0390 C   0  0  0  0  0  0  0  0  0  0  0  0
   -4.3880    7.3990  -21.1710 C   0  0  0  0  0  0  0  0  0  0  0  0
   -5.0870    6.9630  -22.2810 C   0  0  0  0  0  0  0  0  0  0  0  0
   -5.5980   10.2140  -24.1900 C   0  0  0  0  0  0  0  0  0  0  0  0
   -5.5970    9.6660  -25.5390 N   0  0  0  0  0  0  0  0  0  0  0  0
   -6.7040    9.2490  -26.1650 C   0  0  0  0  0  0  0  0  0  0  0  0
   -6.7130    8.1200  -26.9090 N   0  0  0  0  0  0  0  0  0  0  0  0
   -8.0120    7.9300  -27.3410 C   0  0  0  0  0  0  0  0  0  0  0  0
   -8.7410    8.9990  -26.8230 C   0  0  0  0  0  0  0  0  0  0  0  0
   -7.8930    9.8280  -26.0890 N   0  0  0  0  0  0  0  0  0  0  0  0
   -8.6140    6.9250  -28.0840 C   0  0  0  0  0  0  0  0  0  0  0  0
   -9.9840    7.0010  -28.2920 C   0  0  0  0  0  0  0  0  0  0  0  0
  -10.7270    8.0510  -27.7650 C   0  0  0  0  0  0  0  0  0  0  0  0
  -10.1160    9.0640  -27.0380 C   0  0  0  0  0  0  0  0  0  0  0  0
  2  1  1  0
  3  2  2  0
  4  3  1  0
  5  4  2  0
  6  5  1  0
  7  2  1  0
  7  6  2  0
  8  3  1  0
  9  8  1  0
 10  9  1  0
 11 10  2  0
 12 11  1  0
 13 12  2  0
 14 13  1  0
 14 10  1  0
 15 12  1  0
 16 15  2  0
 17 16  1  0
 18 17  2  0
 18 13  1  0
M  END
>  <smiles>  (44) 
Oc1ccccc1CNc1nc2ccccc2[nH]1

>  <inchikey>  (44) 
OCDMDLRMBVJKCG-UHFFFAOYSA-N

>  <alias>  (44) 
Z0846a

$$$$
Z0852a
     RDKit          3D

 18 19  0  0  0  0  0  0  0  0999 V2000
   -3.6020    4.4530  -18.4130 F   0  0  0  0  0  0  0  0  0  0  0  0
   -3.4990    4.7480  -19.7320 C   0  0  0  0  0  0  0  0  0  0  0  0
   -2.2500    4.9090  -20.2630 C   0  0  0  0  0  0  0  0  0  0  0  0
   -2.0770    5.2240  -21.5490 N   0  0  0  0  0  0  0  0  0  0  0  0
   -3.1740    5.3830  -22.2990 C   0  0  0  0  0  0  0  0  0  0  0  0
   -4.4670    5.2290  -21.8280 C   0  0  0  0  0  0  0  0  0  0  0  0
   -4.6470    4.8890  -20.4910 C   0  0  0  0  0  0  0  0  0  0  0  0
   -6.0390    4.6530  -19.9860 C   0  0  0  0  0  0  0  0  0  0  0  0
   -6.8080    3.9110  -20.5890 O   0  0  0  0  0  0  0  0  0  0  0  0
   -6.3210    5.2280  -18.7960 N   0  0  0  0  0  0  0  0  0  0  0  0
   -7.4250    4.9330  -17.9290 C   0  0  0  0  0  0  0  0  0  0  0  0
   -7.1970    4.9580  -16.5500 C   0  0  0  0  0  0  0  0  0  0  0  0
   -5.8460    5.2990  -15.9740 C   0  0  0  0  0  0  0  0  0  0  0  0
   -8.7040    4.6350  -18.4360 C   0  0  0  0  0  0  0  0  0  0  0  0
   -8.8890    4.3200  -19.7400 O   0  0  0  0  0  0  0  0  0  0  0  0
   -9.7380    4.3510  -17.5600 C   0  0  0  0  0  0  0  0  0  0  0  0
   -9.5100    4.3590  -16.2000 C   0  0  0  0  0  0  0  0  0  0  0  0
   -8.2610    4.6650  -15.7030 C   0  0  0  0  0  0  0  0  0  0  0  0
  2  1  1  0
  3  2  2  0
  4  3  1  0
  5  4  2  0
  6  5  1  0
  7  6  2  0
  7  2  1  0
  8  7  1  0
  9  8  2  0
 10  8  1  0
 11 10  1  0
 12 11  2  0
 13 12  1  0
 14 11  1  0
 15 14  1  0
 16 14  2  0
 17 16  1  0
 18 12  1  0
 18 17  2  0
M  END
>  <smiles>  (45) 
Cc1cccc(O)c1NC(=O)c1ccncc1F

>  <inchikey>  (45) 
PDGRBWXZTBUJKY-UHFFFAOYSA-N

>  <alias>  (45) 
Z0852a

$$$$
Z0875a
     RDKit          3D

 15 16  0  0  0  0  0  0  0  0999 V2000
   -6.5890    4.1440  -19.8360 Cl  0  0  0  0  0  0  0  0  0  0  0  0
   -7.6930    4.5730  -18.5710 C   0  0  0  0  0  0  0  0  0  0  0  0
   -8.9920    4.1010  -18.6020 C   0  0  0  0  0  0  0  0  0  0  0  0
   -9.8030    4.1610  -17.5480 N   0  0  0  0  0  0  0  0  0  0  0  0
   -9.2670    4.6950  -16.4530 C   0  0  0  0  0  0  0  0  0  0  0  0
   -8.0370    5.1890  -16.2910 N   0  0  0  0  0  0  0  0  0  0  0  0
   -7.2580    5.1310  -17.3780 C   0  0  0  0  0  0  0  0  0  0  0  0
   -6.0280    5.7160  -17.2890 N   0  0  0  0  0  0  0  0  0  0  0  0
   -5.6200    6.8120  -18.1600 C   0  0  0  0  0  0  0  0  0  0  0  0
   -5.0710    5.3110  -16.2690 C   0  0  0  0  0  0  0  0  0  0  0  0
   -5.1360    6.1650  -15.0100 C   0  0  2  0  0  0  0  0  0  0  0  0
   -3.8410    6.9670  -14.8060 C   0  0  0  0  0  0  0  0  0  0  0  0
   -3.1930    6.4360  -13.6560 O   0  0  0  0  0  0  0  0  0  0  0  0
   -4.2340    5.9940  -12.8020 C   0  0  0  0  0  0  0  0  0  0  0  0
   -5.2290    5.3360  -13.7190 C   0  0  0  0  0  0  0  0  0  0  0  0
  2  1  1  0
  3  2  2  0
  4  3  1  0
  5  4  2  0
  6  5  1  0
  7  2  1  0
  7  6  2  0
  8  7  1  0
  9  8  1  0
 10  8  1  0
 11 10  1  6
 12 11  1  0
 13 12  1  0
 14 13  1  0
 15 14  1  0
 15 11  1  0
M  END
>  <smiles>  (46) 
CN(C[C@H]1CCOC1)c1ncncc1Cl

>  <inchikey>  (46) 
OYKZBUOZAYBEHE-MRVPVSSYSA-N

>  <alias>  (46) 
Z0875a

$$$$
Z0884a
     RDKit          3D

 14 14  0  0  0  0  0  0  0  0999 V2000
   -3.5470    6.6240  -14.9470 O   0  0  0  0  0  0  0  0  0  0  0  0
   -4.3510    6.4990  -15.8750 C   0  0  0  0  0  0  0  0  0  0  0  0
   -5.0900    7.4960  -16.3400 N   0  0  0  0  0  0  0  0  0  0  0  0
   -4.4980    5.1360  -16.5500 C   0  0  2  0  0  0  0  0  0  0  0  0
   -3.1700    4.6890  -17.1190 C   0  0  0  0  0  0  0  0  0  0  0  0
   -5.4000    5.2330  -17.6530 O   0  0  0  0  0  0  0  0  0  0  0  0
   -6.6960    4.8050  -17.4890 C   0  0  0  0  0  0  0  0  0  0  0  0
   -7.3500    4.4310  -18.6710 C   0  0  0  0  0  0  0  0  0  0  0  0
   -6.6190    4.3710  -19.9110 C   0  0  0  0  0  0  0  0  0  0  0  0
   -6.0720    4.3130  -20.9140 N   0  0  0  0  0  0  0  0  0  0  0  0
   -8.7020    4.0910  -18.6270 C   0  0  0  0  0  0  0  0  0  0  0  0
   -9.3750    4.0810  -17.4210 C   0  0  0  0  0  0  0  0  0  0  0  0
   -8.7190    4.4180  -16.2570 C   0  0  0  0  0  0  0  0  0  0  0  0
   -7.3850    4.7890  -16.2840 C   0  0  0  0  0  0  0  0  0  0  0  0
  2  1  2  0
  3  2  1  0
  4  2  1  0
  4  5  1  6
  6  4  1  0
  7  6  1  0
  8  7  2  0
  9  8  1  0
 10  9  3  0
 11  8  1  0
 12 11  2  0
 13 12  1  0
 14  7  1  0
 14 13  2  0
M  END
>  <smiles>  (47) 
C[C@H](Oc1ccccc1C#N)C(N)=O

>  <inchikey>  (47) 
DQKFGAITHBWHRW-ZETCQYMHSA-N

>  <alias>  (47) 
Z0884a

$$$$
Z0904a
     RDKit          3D

 14 14  0  0  0  0  0  0  0  0999 V2000
   -8.7970    4.8330  -15.1190 F   0  0  0  0  0  0  0  0  0  0  0  0
   -8.4430    4.8070  -16.4320 C   0  0  0  0  0  0  0  0  0  0  0  0
   -9.3540    4.3390  -17.3330 C   0  0  0  0  0  0  0  0  0  0  0  0
   -8.9450    4.1630  -18.6350 C   0  0  0  0  0  0  0  0  0  0  0  0
   -7.6450    4.4590  -19.0100 C   0  0  0  0  0  0  0  0  0  0  0  0
   -7.1570    5.1700  -16.7650 C   0  0  0  0  0  0  0  0  0  0  0  0
   -6.7630    4.9800  -18.0800 C   0  0  0  0  0  0  0  0  0  0  0  0
   -5.4620    5.2880  -18.4110 O   0  0  0  0  0  0  0  0  0  0  0  0
   -5.0760    5.3900  -19.7900 C   0  0  0  0  0  0  0  0  0  0  0  0
   -3.6770    4.8310  -19.9810 C   0  0  0  0  0  0  0  0  0  0  0  0
   -3.1010    4.3030  -19.0430 O   0  0  0  0  0  0  0  0  0  0  0  0
   -3.0910    4.9660  -21.1840 N   0  0  0  0  0  0  0  0  0  0  0  0
   -1.7050    5.3980  -21.2940 C   0  0  0  0  0  0  0  0  0  0  0  0
   -3.7820    4.7400  -22.4570 C   0  0  0  0  0  0  0  0  0  0  0  0
  2  1  1  0
  3  2  2  0
  4  3  1  0
  5  4  2  0
  6  2  1  0
  7  6  2  0
  7  5  1  0
  8  7  1  0
  9  8  1  0
 10  9  1  0
 11 10  2  0
 12 10  1  0
 13 12  1  0
 14 12  1  0
M  END
>  <smiles>  (48) 
CN(C)C(=O)COc1cccc(F)c1

>  <inchikey>  (48) 
CEYGCTDHMLPHQC-UHFFFAOYSA-N

>  <alias>  (48) 
Z0904a

$$$$
Z0917a
     RDKit          3D

 16 17  0  0  0  0  0  0  0  0999 V2000
   -7.8880    7.1070  -13.6930 F   0  0  0  0  0  0  0  0  0  0  0  0
   -7.9490    5.8070  -13.8920 C   0  0  1  0  0  0  0  0  0  0  0  0
   -6.9330    5.3160  -13.2230 F   0  0  0  0  0  0  0  0  0  0  0  0
   -9.0400    5.3700  -13.3020 F   0  0  0  0  0  0  0  0  0  0  0  0
   -7.9140    5.4460  -15.3460 C   0  0  0  0  0  0  0  0  0  0  0  0
   -8.8520    4.7890  -16.0930 C   0  0  0  0  0  0  0  0  0  0  0  0
   -6.8480    5.7870  -16.1410 N   0  0  0  0  0  0  0  0  0  0  0  0
   -7.1400    5.3460  -17.3430 C   0  0  0  0  0  0  0  0  0  0  0  0
   -8.3550    4.7380  -17.3670 N   0  0  0  0  0  0  0  0  0  0  0  0
   -9.0520    4.1640  -18.5170 C   0  0  0  0  0  0  0  0  0  0  0  0
   -6.2480    5.4920  -18.5310 C   0  0  2  0  0  0  0  0  0  0  0  0
   -4.8200    5.0630  -18.1690 C   0  0  0  0  0  0  0  0  0  0  0  0
   -3.9330    5.1970  -19.3350 N   0  0  0  0  0  0  0  0  0  0  0  0
   -3.8660    6.5960  -19.8290 C   0  0  0  0  0  0  0  0  0  0  0  0
   -5.2490    7.1190  -20.2070 C   0  0  0  0  0  0  0  0  0  0  0  0
   -6.2300    6.9370  -19.0460 C   0  0  0  0  0  0  0  0  0  0  0  0
  2  1  1  6
  3  2  1  0
  4  2  1  0
  5  2  1  0
  6  5  2  0
  7  5  1  0
  8  7  2  0
  9  8  1  0
  9  6  1  0
 10  9  1  0
 11  8  1  1
 12 11  1  0
 13 12  1  0
 14 13  1  0
 15 14  1  0
 16 11  1  0
 16 15  1  0
M  END
>  <smiles>  (49) 
Cn1cc(C(F)(F)F)nc1[C@H]1CCCNC1

>  <inchikey>  (49) 
ZPUMPEAGLZCEBQ-ZETCQYMHSA-N

>  <alias>  (49) 
Z0917a

$$$$
Z0945a
     RDKit          3D

 14 15  0  0  0  0  0  0  0  0999 V2000
  -10.4370    4.4810  -18.4830 C   0  0  0  0  0  0  0  0  0  0  0  0
   -9.8540    3.8430  -17.3450 O   0  0  0  0  0  0  0  0  0  0  0  0
   -8.7080    4.3550  -16.8600 C   0  0  0  0  0  0  0  0  0  0  0  0
   -7.7460    4.6950  -17.7040 N   0  0  0  0  0  0  0  0  0  0  0  0
   -6.6210    5.1850  -17.1640 C   0  0  0  0  0  0  0  0  0  0  0  0
   -6.3990    5.3660  -15.8530 N   0  0  0  0  0  0  0  0  0  0  0  0
   -7.4050    4.9970  -15.0420 C   0  0  0  0  0  0  0  0  0  0  0  0
   -8.6080    4.4740  -15.4760 C   0  0  0  0  0  0  0  0  0  0  0  0
   -5.5980    5.4900  -18.0190 N   0  0  0  0  0  0  0  0  0  0  0  0
   -5.7560    5.4820  -19.4800 C   0  0  0  0  0  0  0  0  0  0  0  0
   -4.9260    6.5760  -20.1440 C   0  0  0  0  0  0  0  0  0  0  0  0
   -4.1700    7.3910  -19.1530 N   0  0  0  0  0  0  0  0  0  0  0  0
   -3.3770    6.5500  -18.2080 C   0  0  0  0  0  0  0  0  0  0  0  0
   -4.1850    5.3980  -17.6270 C   0  0  0  0  0  0  0  0  0  0  0  0
  2  1  1  0
  3  2  1  0
  4  3  2  0
  5  4  1  0
  6  5  2  0
  7  6  1  0
  8  3  1  0
  8  7  2  0
  9  5  1  0
 10  9  1  0
 11 10  1  0
 12 11  1  0
 13 12  1  0
 14  9  1  0
 14 13  1  0
M  END
>  <smiles>  (50) 
COc1ccnc(N2CCNCC2)n1

>  <inchikey>  (50) 
UWNRWWIRIZDKLH-UHFFFAOYSA-N

>  <alias>  (50) 
Z0945a

$$$$
Z0951a
     RDKit          3D

 12 13  0  0  0  0  0  0  0  0999 V2000
   -9.7210    6.9140  -13.4090 C   0  0  0  0  0  0  0  0  0  0  0  0
   -8.4850    6.3170  -12.9030 N   0  0  0  0  0  0  0  0  0  0  0  0
   -8.2710    4.9670  -13.4320 C   0  0  0  0  0  0  0  0  0  0  0  0
   -7.3860    5.0090  -14.6340 C   0  0  0  0  0  0  0  0  0  0  0  0
   -7.7810    4.6730  -15.9050 N   0  0  0  0  0  0  0  0  0  0  0  0
   -6.6980    4.9660  -16.7230 C   0  0  0  0  0  0  0  0  0  0  0  0
   -5.7000    5.4150  -15.9770 N   0  0  0  0  0  0  0  0  0  0  0  0
   -6.1480    5.4390  -14.6450 N   0  0  0  0  0  0  0  0  0  0  0  0
   -8.9740    4.1870  -16.3890 C   0  0  0  0  0  0  0  0  0  0  0  0
   -9.1160    4.0180  -17.7200 C   0  0  0  0  0  0  0  0  0  0  0  0
   -8.0430    4.3160  -18.5890 C   0  0  0  0  0  0  0  0  0  0  0  0
   -6.8540    4.7770  -18.1110 C   0  0  0  0  0  0  0  0  0  0  0  0
  2  1  1  0
  3  2  1  0
  4  3  1  0
  5  4  1  0
  6  5  1  0
  7  6  2  0
  8  7  1  0
  8  4  2  0
  9  5  1  0
 10  9  2  0
 11 10  1  0
 12 11  2  0
 12  6  1  0
M  END
>  <smiles>  (51) 
CNCc1nnc2ccccn12

>  <inchikey>  (51) 
UQXCTICEXNDHAR-UHFFFAOYSA-N

>  <alias>  (51) 
Z0951a

$$$$
Z0969a
     RDKit          3D

 10 11  0  0  0  0  0  0  0  0999 V2000
   -8.2240    5.0050  -11.5600 C   0  0  0  0  0  0  0  0  0  0  0  0
   -8.4170    4.9010  -10.0660 C   0  0  0  0  0  0  0  0  0  0  0  0
   -8.5660    3.7580   -9.3330 C   0  0  0  0  0  0  0  0  0  0  0  0
   -8.7320    4.1270   -8.0450 N   0  0  0  0  0  0  0  0  0  0  0  0
   -8.6940    5.4820   -7.8960 N   0  0  0  0  0  0  0  0  0  0  0  0
   -8.5010    5.9430   -9.1230 C   0  0  0  0  0  0  0  0  0  0  0  0
   -8.5730    2.3030   -9.6940 C   0  0  0  0  0  0  0  0  0  0  0  0
   -8.4650    1.4180   -8.5280 N   0  0  0  0  0  0  0  0  0  0  0  0
   -9.3520    1.8510   -7.4290 C   0  0  0  0  0  0  0  0  0  0  0  0
   -8.9470    3.2210   -6.9110 C   0  0  0  0  0  0  0  0  0  0  0  0
  2  1  1  0
  3  2  2  0
  4  3  1  0
  5  4  1  0
  6  2  1  0
  6  5  2  0
  7  3  1  0
  8  7  1  0
  9  8  1  0
 10  9  1  0
 10  4  1  0
M  END
>  <smiles>  (52) 
Cc1cnn2c1CNCC2

>  <inchikey>  (52) 
GHWWEPXDSAHILS-UHFFFAOYSA-N

>  <alias>  (52) 
Z0969a

$$$$
Z0969b
     RDKit          3D

 10 11  0  0  0  0  0  0  0  0999 V2000
   -9.6040    4.0180  -18.2080 C   0  0  0  0  0  0  0  0  0  0  0  0
   -8.5250    4.5480  -17.3220 C   0  0  0  0  0  0  0  0  0  0  0  0
   -7.2690    4.9090  -17.7100 C   0  0  0  0  0  0  0  0  0  0  0  0
   -6.6330    5.3720  -16.6160 N   0  0  0  0  0  0  0  0  0  0  0  0
   -7.4260    5.3190  -15.5040 N   0  0  0  0  0  0  0  0  0  0  0  0
   -8.5680    4.8120  -15.9390 C   0  0  0  0  0  0  0  0  0  0  0  0
   -6.5390    4.8260  -19.0170 C   0  0  0  0  0  0  0  0  0  0  0  0
   -5.3150    5.6310  -19.0380 N   0  0  0  0  0  0  0  0  0  0  0  0
   -4.5130    5.4280  -17.8140 C   0  0  0  0  0  0  0  0  0  0  0  0
   -5.2560    5.8800  -16.5750 C   0  0  0  0  0  0  0  0  0  0  0  0
  2  1  1  0
  3  2  2  0
  4  3  1  0
  5  4  1  0
  6  2  1  0
  6  5  2  0
  7  3  1  0
  8  7  1  0
  9  8  1  0
 10  4  1  0
 10  9  1  0
M  END
>  <smiles>  (53) 
Cc1cnn2c1CNCC2

>  <inchikey>  (53) 
GHWWEPXDSAHILS-UHFFFAOYSA-N

>  <alias>  (53) 
Z0969b

$$$$
Z0990a
     RDKit          3D

 11 11  0  0  0  0  0  0  0  0999 V2000
   -6.6860    6.4440  -16.0780 O   0  0  0  0  0  0  0  0  0  0  0  0
   -7.0180    5.7570  -17.0280 C   0  0  0  0  0  0  0  0  0  0  0  0
   -8.1160    4.9490  -16.9560 N   0  0  0  0  0  0  0  0  0  0  0  0
   -8.9860    4.4940  -18.0410 C   0  0  0  0  0  0  0  0  0  0  0  0
   -8.5460    4.5370  -15.6250 C   0  0  0  0  0  0  0  0  0  0  0  0
   -6.3180    5.7870  -18.1930 N   0  0  0  0  0  0  0  0  0  0  0  0
   -6.2840    7.0450  -18.9520 C   0  0  0  0  0  0  0  0  0  0  0  0
   -4.8880    7.3690  -19.4450 C   0  0  0  0  0  0  0  0  0  0  0  0
   -4.3490    6.2320  -20.2020 N   0  0  0  0  0  0  0  0  0  0  0  0
   -4.2710    5.0300  -19.3580 C   0  0  0  0  0  0  0  0  0  0  0  0
   -5.6530    4.6540  -18.8540 C   0  0  0  0  0  0  0  0  0  0  0  0
  2  1  2  0
  3  2  1  0
  4  3  1  0
  5  3  1  0
  6  2  1  0
  7  6  1  0
  8  7  1  0
  9  8  1  0
 10  9  1  0
 11  6  1  0
 11 10  1  0
M  END
>  <smiles>  (54) 
CN(C)C(=O)N1CCNCC1

>  <inchikey>  (54) 
XMFYMWXCIWIHAC-UHFFFAOYSA-N

>  <alias>  (54) 
Z0990a

$$$$
Z1046a
     RDKit          3D

 16 16  0  0  0  0  0  0  0  0999 V2000
   -0.5590    5.8080  -26.2090 O   0  0  0  0  0  0  0  0  0  0  0  0
   -0.1760    5.1310  -25.2460 C   0  0  0  0  0  0  0  0  0  0  0  0
    1.2160    4.5670  -25.1650 C   0  0  0  0  0  0  0  0  0  0  0  0
   -0.9760    4.8190  -24.2050 N   0  0  0  0  0  0  0  0  0  0  0  0
   -2.3250    5.1590  -23.9900 C   0  0  0  0  0  0  0  0  0  0  0  0
   -2.9680    4.5860  -22.9030 C   0  0  0  0  0  0  0  0  0  0  0  0
   -4.2620    4.9510  -22.5950 C   0  0  0  0  0  0  0  0  0  0  0  0
   -4.9240    5.9040  -23.3380 C   0  0  0  0  0  0  0  0  0  0  0  0
   -3.0060    6.0730  -24.7850 C   0  0  0  0  0  0  0  0  0  0  0  0
   -4.3040    6.4510  -24.4530 C   0  0  0  0  0  0  0  0  0  0  0  0
   -4.9380    7.3460  -25.3370 N   0  0  0  0  0  0  0  0  0  0  0  0
   -5.9360    8.2140  -25.0670 C   0  0  0  0  0  0  0  0  0  0  0  0
   -6.4130    8.3800  -23.9550 O   0  0  0  0  0  0  0  0  0  0  0  0
   -6.4610    8.9900  -26.2570 C   0  0  0  0  0  0  0  0  0  0  0  0
   -7.4800    9.8560  -25.7970 O   0  0  0  0  0  0  0  0  0  0  0  0
   -7.8830   10.7840  -26.7640 C   0  0  0  0  0  0  0  0  0  0  0  0
  2  1  2  0
  3  2  1  0
  4  2  1  0
  5  4  1  0
  6  5  2  0
  7  6  1  0
  8  7  2  0
  9  5  1  0
 10  9  2  0
 10  8  1  0
 11 10  1  0
 12 11  1  0
 13 12  2  0
 14 12  1  0
 15 14  1  0
 16 15  1  0
M  END
>  <smiles>  (55) 
COCC(=O)Nc1cccc(NC(C)=O)c1

>  <inchikey>  (55) 
ZDALGCTWWSVNDR-UHFFFAOYSA-N

>  <alias>  (55) 
Z1046a

$$$$
Z1046b
     RDKit          3D

 16 16  0  0  0  0  0  0  0  0999 V2000
   -4.8480    9.0720  -21.0440 O   0  0  0  0  0  0  0  0  0  0  0  0
   -3.7160    8.6640  -21.2940 C   0  0  0  0  0  0  0  0  0  0  0  0
   -2.8880    9.2500  -22.4090 C   0  0  0  0  0  0  0  0  0  0  0  0
   -3.1260    7.6510  -20.6100 N   0  0  0  0  0  0  0  0  0  0  0  0
   -3.6790    6.8380  -19.5810 C   0  0  0  0  0  0  0  0  0  0  0  0
   -2.8240    6.3500  -18.6010 C   0  0  0  0  0  0  0  0  0  0  0  0
   -3.3080    5.4860  -17.6320 C   0  0  0  0  0  0  0  0  0  0  0  0
   -4.6340    5.0800  -17.6440 C   0  0  0  0  0  0  0  0  0  0  0  0
   -5.0220    6.4610  -19.5760 C   0  0  0  0  0  0  0  0  0  0  0  0
   -5.4940    5.5540  -18.6300 C   0  0  0  0  0  0  0  0  0  0  0  0
   -6.8010    5.0260  -18.8160 N   0  0  0  0  0  0  0  0  0  0  0  0
   -7.7760    4.7400  -17.9040 C   0  0  0  0  0  0  0  0  0  0  0  0
   -8.9040    4.3430  -18.1980 O   0  0  0  0  0  0  0  0  0  0  0  0
   -7.4450    4.9680  -16.4550 C   0  0  0  0  0  0  0  0  0  0  0  0
   -8.5750    4.3190  -15.9070 O   0  0  0  0  0  0  0  0  0  0  0  0
   -8.7580    4.5900  -14.5280 C   0  0  0  0  0  0  0  0  0  0  0  0
  2  1  2  0
  3  2  1  0
  4  2  1  0
  5  4  1  0
  6  5  2  0
  7  6  1  0
  8  7  2  0
  9  5  1  0
 10  8  1  0
 10  9  2  0
 11 10  1  0
 12 11  1  0
 13 12  2  0
 14 12  1  0
 15 14  1  0
 16 15  1  0
M  END
>  <smiles>  (56) 
COCC(=O)Nc1cccc(NC(C)=O)c1

>  <inchikey>  (56) 
ZDALGCTWWSVNDR-UHFFFAOYSA-N

>  <alias>  (56) 
Z1046b

$$$$
Z1098a
     RDKit          3D

 19 20  0  0  0  0  0  0  0  0999 V2000
   -5.6740    6.5870  -16.5850 F   0  0  0  0  0  0  0  0  0  0  0  0
   -5.7030    5.2690  -16.7810 C   0  0  1  0  0  0  0  0  0  0  0  0
   -4.8480    5.0350  -17.7880 F   0  0  0  0  0  0  0  0  0  0  0  0
   -5.1520    4.7060  -15.7060 F   0  0  0  0  0  0  0  0  0  0  0  0
   -7.0900    4.7570  -17.0670 C   0  0  0  0  0  0  0  0  0  0  0  0
   -7.4240    4.5000  -18.3880 C   0  0  0  0  0  0  0  0  0  0  0  0
   -8.6800    4.0200  -18.7200 C   0  0  0  0  0  0  0  0  0  0  0  0
   -9.6070    3.7740  -17.7410 C   0  0  0  0  0  0  0  0  0  0  0  0
   -9.2960    4.0090  -16.4150 C   0  0  0  0  0  0  0  0  0  0  0  0
   -8.0510    4.5230  -16.0680 C   0  0  0  0  0  0  0  0  0  0  0  0
   -7.8610    4.9470  -14.6390 C   0  0  0  0  0  0  0  0  0  0  0  0
   -7.3470    6.0250  -14.3500 O   0  0  0  0  0  0  0  0  0  0  0  0
   -8.3450    4.0870  -13.6840 N   0  0  0  0  0  0  0  0  0  0  0  0
   -8.2610    4.4220  -12.3200 C   0  0  0  0  0  0  0  0  0  0  0  0
   -8.0470    3.6510  -11.2140 C   0  0  0  0  0  0  0  0  0  0  0  0
   -8.3460    5.7300  -11.8390 C   0  0  0  0  0  0  0  0  0  0  0  0
   -8.1810    5.7780  -10.5300 N   0  0  0  0  0  0  0  0  0  0  0  0
   -7.9820    4.4910  -10.1680 N   0  0  0  0  0  0  0  0  0  0  0  0
   -7.6270    4.1690   -8.7930 C   0  0  0  0  0  0  0  0  0  0  0  0
  2  1  1  1
  3  2  1  0
  4  2  1  0
  5  2  1  0
  6  5  2  0
  7  6  1  0
  8  7  2  0
  9  8  1  0
 10  9  2  0
 10  5  1  0
 11 10  1  0
 12 11  2  0
 13 11  1  0
 14 13  1  0
 15 14  2  0
 16 14  1  0
 17 16  2  0
 18 15  1  0
 18 17  1  0
 19 18  1  0
M  END
>  <smiles>  (57) 
Cn1cc(NC(=O)c2ccccc2C(F)(F)F)cn1

>  <inchikey>  (57) 
HJOQMJVPFXCEBV-UHFFFAOYSA-N

>  <alias>  (57) 
Z1098a

$$$$
Z1234a
     RDKit          3D

 23 25  0  0  0  0  0  0  0  0999 V2000
   -4.1950    9.8460  -17.0130 C   0  0  0  0  0  0  0  0  0  0  0  0
   -3.4140    8.6750  -17.2310 O   0  0  0  0  0  0  0  0  0  0  0  0
   -3.8910    7.5100  -16.7200 C   0  0  0  0  0  0  0  0  0  0  0  0
   -3.0940    6.8120  -15.8300 C   0  0  0  0  0  0  0  0  0  0  0  0
   -3.4790    5.6550  -15.2780 N   0  0  0  0  0  0  0  0  0  0  0  0
   -4.6620    5.1600  -15.6540 C   0  0  0  0  0  0  0  0  0  0  0  0
   -5.5320    5.7710  -16.5490 C   0  0  0  0  0  0  0  0  0  0  0  0
   -6.8280    5.1510  -16.9600 C   0  0  0  0  0  0  0  0  0  0  0  0
   -7.0140    4.8000  -18.2980 C   0  0  0  0  0  0  0  0  0  0  0  0
   -8.1630    4.1680  -18.7280 C   0  0  0  0  0  0  0  0  0  0  0  0
   -9.1810    3.9110  -17.8420 C   0  0  0  0  0  0  0  0  0  0  0  0
   -9.0110    4.2120  -16.5070 C   0  0  0  0  0  0  0  0  0  0  0  0
   -7.8720    4.8840  -16.0580 C   0  0  0  0  0  0  0  0  0  0  0  0
   -7.8290    5.1830  -14.5880 C   0  0  0  0  0  0  0  0  0  0  0  0
   -7.4470    6.2660  -14.1740 O   0  0  0  0  0  0  0  0  0  0  0  0
   -8.2110    4.1680  -13.7610 N   0  0  0  0  0  0  0  0  0  0  0  0
   -8.2470    4.1960  -12.3560 C   0  0  0  0  0  0  0  0  0  0  0  0
   -8.4820    3.1080  -11.5030 C   0  0  0  0  0  0  0  0  0  0  0  0
   -8.4670    3.4650  -10.2280 N   0  0  0  0  0  0  0  0  0  0  0  0
   -8.2220    4.8140  -10.2500 N   0  0  0  0  0  0  0  0  0  0  0  0
   -8.1310    5.5610   -8.9990 C   0  0  0  0  0  0  0  0  0  0  0  0
   -8.0950    5.2890  -11.5120 C   0  0  0  0  0  0  0  0  0  0  0  0
   -5.1010    6.9750  -17.1090 C   0  0  0  0  0  0  0  0  0  0  0  0
  2  1  1  0
  3  2  1  0
  4  3  2  0
  5  4  1  0
  6  5  2  0
  7  6  1  0
  8  7  1  0
  9  8  2  0
 10  9  1  0
 11 10  2  0
 12 11  1  0
 13 12  2  0
 13  8  1  0
 14 13  1  0
 15 14  2  0
 16 14  1  0
 17 16  1  0
 18 17  1  0
 19 18  2  0
 20 19  1  0
 21 20  1  0
 22 17  2  0
 22 20  1  0
 23  7  2  0
 23  3  1  0
M  END
>  <smiles>  (58) 
COc1cncc(-c2ccccc2C(=O)Nc2cnn(C)c2)c1

>  <inchikey>  (58) 
IIBHKLQHOHXRCH-UHFFFAOYSA-N

>  <alias>  (58) 
Z1234a

$$$$
Z1237a
     RDKit          3D

 20 22  0  0  0  0  0  0  0  0999 V2000
   -8.3180    6.7080  -11.3800 C   0  0  0  0  0  0  0  0  0  0  0  0
   -7.9570    4.3930  -17.2740 C   0  0  0  0  0  0  0  0  0  0  0  0
   -8.7270    4.0830  -18.4800 C   0  0  2  0  0  0  0  0  0  0  0  0
  -10.2070    3.8810  -18.3970 C   0  0  0  0  0  0  0  0  0  0  0  0
   -9.3240    2.7210  -18.6300 C   0  0  0  0  0  0  0  0  0  0  0  0
   -5.8800    4.8850  -18.6330 C   0  0  0  0  0  0  0  0  0  0  0  0
   -6.1330    4.9890  -16.0790 C   0  0  0  0  0  0  0  0  0  0  0  0
   -4.7210    5.4000  -15.8540 C   0  0  0  0  0  0  0  0  0  0  0  0
   -8.2840    5.3150  -10.8040 C   0  0  0  0  0  0  0  0  0  0  0  0
   -8.3690    5.1350   -9.4310 C   0  0  0  0  0  0  0  0  0  0  0  0
   -8.2280    2.8600   -9.6430 C   0  0  0  0  0  0  0  0  0  0  0  0
   -8.1420    2.9310  -11.0070 C   0  0  0  0  0  0  0  0  0  0  0  0
   -8.1660    4.1780  -11.6090 C   0  0  0  0  0  0  0  0  0  0  0  0
   -7.0840    4.8940  -13.7250 C   0  0  0  0  0  0  0  0  0  0  0  0
   -7.1710    4.7550  -15.1850 C   0  0  0  0  0  0  0  0  0  0  0  0
   -8.3000    4.3860  -15.9450 C   0  0  0  0  0  0  0  0  0  0  0  0
   -8.3450    3.9260   -8.8470 N   0  0  0  0  0  0  0  0  0  0  0  0
   -8.0770    4.2920  -13.0170 N   0  0  0  0  0  0  0  0  0  0  0  0
   -6.6320    4.7590  -17.3850 N   0  0  0  0  0  0  0  0  0  0  0  0
   -6.1850    5.5380  -13.1960 O   0  0  0  0  0  0  0  0  0  0  0  0
  3  2  1  1
  4  3  1  0
  5  4  1  0
  5  3  1  0
  8  7  1  0
  9  1  1  0
 10  9  2  0
 12 11  1  0
 13 12  2  0
 13  9  1  0
 15 14  1  0
 15  7  2  0
 16  2  2  0
 16 15  1  0
 17 11  2  0
 17 10  1  0
 18 14  1  0
 18 13  1  0
 19  6  1  0
 19  2  1  0
 19  7  1  0
 20 14  2  0
M  END
>  <smiles>  (59) 
Cc1cnccc1NC(=O)c1cc(C2CC2)n(C)c1C

>  <inchikey>  (59) 
SQWXQKIKIAPPEQ-UHFFFAOYSA-N

>  <alias>  (59) 
Z1237a

$$$$
Z1261a
     RDKit          3D

 24 26  0  0  0  0  0  0  0  0999 V2000
   -4.6080   10.1610  -15.8580 C   0  0  0  0  0  0  0  0  0  0  0  0
   -9.2660    4.1580  -16.3790 C   0  0  0  0  0  0  0  0  0  0  0  0
   -8.0550    4.7440  -15.9970 C   0  0  0  0  0  0  0  0  0  0  0  0
   -7.8770    5.1110  -14.5490 C   0  0  0  0  0  0  0  0  0  0  0  0
   -8.2280    4.5040  -12.2190 C   0  0  0  0  0  0  0  0  0  0  0  0
   -7.9990    5.7940  -11.7000 C   0  0  0  0  0  0  0  0  0  0  0  0
   -8.3290    4.2580   -8.5760 C   0  0  0  0  0  0  0  0  0  0  0  0
   -8.3940    3.6940  -11.0820 C   0  0  0  0  0  0  0  0  0  0  0  0
   -4.8250    4.9600  -15.8910 C   0  0  0  0  0  0  0  0  0  0  0  0
   -3.5920    5.5400  -15.6530 C   0  0  0  0  0  0  0  0  0  0  0  0
   -3.6730    8.7110  -17.4940 C   0  0  0  0  0  0  0  0  0  0  0  0
   -4.1180    7.3720  -16.9610 C   0  0  0  0  0  0  0  0  0  0  0  0
   -5.3710    6.8400  -17.2420 C   0  0  0  0  0  0  0  0  0  0  0  0
   -5.7460    5.6170  -16.6880 C   0  0  0  0  0  0  0  0  0  0  0  0
   -7.0790    5.0100  -16.9810 C   0  0  0  0  0  0  0  0  0  0  0  0
   -7.3580    4.6540  -18.3010 C   0  0  0  0  0  0  0  0  0  0  0  0
   -8.5570    4.0660  -18.6560 C   0  0  0  0  0  0  0  0  0  0  0  0
   -9.5130    3.8230  -17.6970 C   0  0  0  0  0  0  0  0  0  0  0  0
   -8.2580    4.2020  -13.5960 N   0  0  0  0  0  0  0  0  0  0  0  0
   -8.0160    5.8130  -10.3770 N   0  0  0  0  0  0  0  0  0  0  0  0
   -8.2630    4.5190  -10.0100 N   0  0  0  0  0  0  0  0  0  0  0  0
   -3.2390    6.7280  -16.1750 N   0  0  0  0  0  0  0  0  0  0  0  0
   -4.6270    9.7280  -17.2160 O   0  0  0  0  0  0  0  0  0  0  0  0
   -7.4140    6.1990  -14.2420 O   0  0  0  0  0  0  0  0  0  0  0  0
  3  2  2  0
  4  3  1  0
  6  5  1  0
  8  5  2  0
 10  9  2  0
 12 11  1  0
 13 12  1  0
 14  9  1  0
 14 13  2  0
 15  3  1  0
 15 14  1  0
 16 15  2  0
 17 16  1  0
 18 17  2  0
 18  2  1  0
 19  5  1  0
 19  4  1  0
 20  6  2  0
 21  8  1  0
 21  7  1  0
 21 20  1  0
 22 12  2  0
 22 10  1  0
 23 11  1  0
 23  1  1  0
 24  4  2  0
M  END
>  <smiles>  (60) 
COCc1cc(-c2ccccc2C(=O)Nc2cnn(C)c2)ccn1

>  <inchikey>  (60) 
QLEJHKGASBJBRV-UHFFFAOYSA-N

>  <alias>  (60) 
Z1261a

$$$$
Z1265a
     RDKit          3D

 23 25  0  0  0  0  0  0  0  0999 V2000
   -1.6440    6.3170  -14.4640 C   0  0  0  0  0  0  0  0  0  0  0  0
   -8.0470    4.7700  -16.0500 C   0  0  0  0  0  0  0  0  0  0  0  0
   -7.8880    5.0200  -14.5740 C   0  0  0  0  0  0  0  0  0  0  0  0
   -8.2990    4.1190  -12.3420 C   0  0  0  0  0  0  0  0  0  0  0  0
   -8.6670    3.1220  -11.4380 C   0  0  0  0  0  0  0  0  0  0  0  0
   -7.9860    5.6240   -9.0530 C   0  0  0  0  0  0  0  0  0  0  0  0
   -7.9910    5.2270  -11.5520 C   0  0  0  0  0  0  0  0  0  0  0  0
   -5.4980    6.9880  -17.4790 C   0  0  0  0  0  0  0  0  0  0  0  0
   -4.2960    7.6230  -17.2280 C   0  0  0  0  0  0  0  0  0  0  0  0
   -3.7040    6.0580  -15.6710 C   0  0  0  0  0  0  0  0  0  0  0  0
   -4.8900    5.3590  -15.8640 C   0  0  0  0  0  0  0  0  0  0  0  0
   -5.8220    5.8410  -16.7820 C   0  0  0  0  0  0  0  0  0  0  0  0
   -7.1120    5.1330  -17.0430 C   0  0  0  0  0  0  0  0  0  0  0  0
   -7.4170    4.8310  -18.3720 C   0  0  0  0  0  0  0  0  0  0  0  0
   -8.5860    4.1840  -18.7210 C   0  0  0  0  0  0  0  0  0  0  0  0
   -9.4900    3.8280  -17.7500 C   0  0  0  0  0  0  0  0  0  0  0  0
   -9.2260    4.1180  -16.4280 C   0  0  0  0  0  0  0  0  0  0  0  0
   -8.2490    4.0100  -13.7410 N   0  0  0  0  0  0  0  0  0  0  0  0
   -8.5960    3.5410  -10.1840 N   0  0  0  0  0  0  0  0  0  0  0  0
   -8.1690    4.8390  -10.2700 N   0  0  0  0  0  0  0  0  0  0  0  0
   -3.3990    7.1590  -16.3320 N   0  0  0  0  0  0  0  0  0  0  0  0
   -2.8340    5.5650  -14.7560 O   0  0  0  0  0  0  0  0  0  0  0  0
   -7.4590    6.0790  -14.1470 O   0  0  0  0  0  0  0  0  0  0  0  0
  3  2  1  0
  5  4  1  0
  7  4  2  0
  9  8  2  0
 11 10  1  0
 12  8  1  0
 12 11  2  0
 13  2  1  0
 13 12  1  0
 14 13  2  0
 15 14  1  0
 16 15  2  0
 17 16  1  0
 17  2  2  0
 18  4  1  0
 18  3  1  0
 19  5  2  0
 20  7  1  0
 20 19  1  0
 20  6  1  0
 21  9  1  0
 21 10  2  0
 22 10  1  0
 22  1  1  0
 23  3  2  0
M  END
>  <smiles>  (61) 
COc1cc(-c2ccccc2C(=O)Nc2cnn(C)c2)ccn1

>  <inchikey>  (61) 
AACDVFMAAOMMMJ-UHFFFAOYSA-N

>  <alias>  (61) 
Z1265a

$$$$
Z1271a
     RDKit          3D

 20 22  0  0  0  0  0  0  0  0999 V2000
   -8.1530    6.7530  -11.2330 C   0  0  0  0  0  0  0  0  0  0  0  0
   -7.8390    4.5330  -17.1930 C   0  0  0  0  0  0  0  0  0  0  0  0
   -8.5610    4.1900  -18.4230 C   0  0  1  0  0  0  0  0  0  0  0  0
   -9.0600    2.7900  -18.6070 C   0  0  0  0  0  0  0  0  0  0  0  0
  -10.0260    3.8820  -18.3830 C   0  0  0  0  0  0  0  0  0  0  0  0
   -5.8590    5.4010  -18.5140 C   0  0  0  0  0  0  0  0  0  0  0  0
   -6.0980    5.3130  -15.9640 C   0  0  0  0  0  0  0  0  0  0  0  0
   -4.7520    5.9110  -15.7360 C   0  0  0  0  0  0  0  0  0  0  0  0
   -8.1930    5.3490  -10.6830 C   0  0  0  0  0  0  0  0  0  0  0  0
   -8.2780    5.1420   -9.3150 C   0  0  0  0  0  0  0  0  0  0  0  0
   -8.2770    2.8710   -9.5790 C   0  0  0  0  0  0  0  0  0  0  0  0
   -8.1850    2.9730  -10.9430 C   0  0  0  0  0  0  0  0  0  0  0  0
   -8.1460    4.2340  -11.5190 C   0  0  0  0  0  0  0  0  0  0  0  0
   -6.9910    4.9320  -13.6080 C   0  0  0  0  0  0  0  0  0  0  0  0
   -7.0820    4.8860  -15.0750 C   0  0  0  0  0  0  0  0  0  0  0  0
   -8.1600    4.3970  -15.8610 C   0  0  0  0  0  0  0  0  0  0  0  0
   -8.3200    3.9220   -8.7560 N   0  0  0  0  0  0  0  0  0  0  0  0
   -8.0510    4.4050  -12.9240 N   0  0  0  0  0  0  0  0  0  0  0  0
   -6.5800    5.0970  -17.2790 N   0  0  0  0  0  0  0  0  0  0  0  0
   -6.0160    5.4130  -13.0410 O   0  0  0  0  0  0  0  0  0  0  0  0
  3  2  1  1
  4  3  1  0
  5  4  1  0
  5  3  1  0
  8  7  1  0
  9  1  1  0
 10  9  2  0
 12 11  1  0
 13 12  2  0
 13  9  1  0
 15 14  1  0
 15  7  2  0
 16  2  2  0
 16 15  1  0
 17 11  2  0
 17 10  1  0
 18 14  1  0
 18 13  1  0
 19  6  1  0
 19  2  1  0
 19  7  1  0
 20 14  2  0
M  END
>  <smiles>  (62) 
Cc1cnccc1NC(=O)c1cc(C2CC2)n(C)c1C

>  <inchikey>  (62) 
SQWXQKIKIAPPEQ-UHFFFAOYSA-N

>  <alias>  (62) 
Z1271a

$$$$
Z1274a
     RDKit          3D

 21 23  0  0  0  0  0  0  0  0999 V2000
   -8.1450    6.7390  -11.5830 C   0  0  0  0  0  0  0  0  0  0  0  0
   -8.7500    3.9600  -17.3830 C   0  0  0  0  0  0  0  0  0  0  0  0
   -7.6870    4.1790  -18.2390 C   0  0  0  0  0  0  0  0  0  0  0  0
   -6.4550    4.5940  -17.7420 C   0  0  0  0  0  0  0  0  0  0  0  0
   -5.3310    4.8010  -18.6680 C   0  0  0  0  0  0  0  0  0  0  0  0
   -4.2200    4.8910  -20.5710 C   0  0  0  0  0  0  0  0  0  0  0  0
   -3.2030    5.1480  -19.7450 C   0  0  0  0  0  0  0  0  0  0  0  0
   -6.3090    4.7690  -16.3590 C   0  0  0  0  0  0  0  0  0  0  0  0
   -8.1840    5.3620  -10.9650 C   0  0  0  0  0  0  0  0  0  0  0  0
   -8.1990    5.2270   -9.5850 C   0  0  0  0  0  0  0  0  0  0  0  0
   -8.2540    2.9440   -9.7310 C   0  0  0  0  0  0  0  0  0  0  0  0
   -8.2360    2.9740  -11.0990 C   0  0  0  0  0  0  0  0  0  0  0  0
   -8.1920    4.2010  -11.7470 C   0  0  0  0  0  0  0  0  0  0  0  0
   -7.2110    4.7490  -13.9980 C   0  0  0  0  0  0  0  0  0  0  0  0
   -7.3780    4.5520  -15.4840 C   0  0  0  0  0  0  0  0  0  0  0  0
   -8.5980    4.1430  -16.0220 C   0  0  0  0  0  0  0  0  0  0  0  0
   -8.2380    4.0350   -8.9600 N   0  0  0  0  0  0  0  0  0  0  0  0
   -8.1910    4.2730  -13.1840 N   0  0  0  0  0  0  0  0  0  0  0  0
   -5.4530    4.8310  -19.9790 N   0  0  0  0  0  0  0  0  0  0  0  0
   -6.2170    5.3100  -13.5450 O   0  0  0  0  0  0  0  0  0  0  0  0
   -3.6910    4.9610  -18.1180 S   0  0  0  0  0  0  0  0  0  0  0  0
  3  2  2  0
  4  3  1  0
  5  4  1  0
  7  6  2  0
  8  4  2  0
  9  1  1  0
 10  9  2  0
 12 11  1  0
 13 12  2  0
 13  9  1  0
 15  8  1  0
 15 14  1  0
 16  2  1  0
 16 15  2  0
 17 11  2  0
 17 10  1  0
 18 14  1  0
 18 13  1  0
 19  6  1  0
 19  5  2  0
 20 14  2  0
 21  7  1  0
 21  5  1  0
M  END
>  <smiles>  (63) 
Cc1cnccc1NC(=O)c1cccc(-c2nccs2)c1

>  <inchikey>  (63) 
HFFACLLXIVKSBM-UHFFFAOYSA-N

>  <alias>  (63) 
Z1274a

$$$$
Z1288a
     RDKit          3D

 23 25  0  0  0  0  0  0  0  0999 V2000
   -3.4200    8.6210  -17.5750 C   0  0  0  0  0  0  0  0  0  0  0  0
   -7.9710    4.8070  -15.9860 C   0  0  0  0  0  0  0  0  0  0  0  0
   -7.8600    5.1900  -14.5340 C   0  0  0  0  0  0  0  0  0  0  0  0
   -8.1810    4.4320  -12.2190 C   0  0  0  0  0  0  0  0  0  0  0  0
   -8.3680    3.4490  -11.2390 C   0  0  0  0  0  0  0  0  0  0  0  0
   -7.9650    6.1590   -9.0210 C   0  0  0  0  0  0  0  0  0  0  0  0
   -8.0000    5.6190  -11.5030 C   0  0  0  0  0  0  0  0  0  0  0  0
   -4.8000    5.1310  -15.6410 C   0  0  0  0  0  0  0  0  0  0  0  0
   -3.2120    6.7070  -15.9220 C   0  0  0  0  0  0  0  0  0  0  0  0
   -3.9420    7.3730  -16.9040 C   0  0  0  0  0  0  0  0  0  0  0  0
   -5.1780    6.8350  -17.2440 C   0  0  0  0  0  0  0  0  0  0  0  0
   -5.6500    5.6900  -16.5940 C   0  0  0  0  0  0  0  0  0  0  0  0
   -6.9680    5.0670  -16.9420 C   0  0  0  0  0  0  0  0  0  0  0  0
   -7.1960    4.6600  -18.2610 C   0  0  0  0  0  0  0  0  0  0  0  0
   -8.3770    4.0490  -18.6380 C   0  0  0  0  0  0  0  0  0  0  0  0
   -9.3580    3.8140  -17.7020 C   0  0  0  0  0  0  0  0  0  0  0  0
   -9.1600    4.1870  -16.3880 C   0  0  0  0  0  0  0  0  0  0  0  0
   -2.0080    7.1900  -15.5590 F   0  0  0  0  0  0  0  0  0  0  0  0
   -8.1830    4.2350  -13.6130 N   0  0  0  0  0  0  0  0  0  0  0  0
   -8.3080    3.9500  -10.0160 N   0  0  0  0  0  0  0  0  0  0  0  0
   -8.0800    5.2900  -10.1910 N   0  0  0  0  0  0  0  0  0  0  0  0
   -3.6020    5.6330  -15.2980 N   0  0  0  0  0  0  0  0  0  0  0  0
   -7.5050    6.3130  -14.2080 O   0  0  0  0  0  0  0  0  0  0  0  0
  3  2  1  0
  5  4  1  0
  7  4  2  0
 10  1  1  0
 10  9  1  0
 11 10  2  0
 12  8  2  0
 12 11  1  0
 13  2  1  0
 13 12  1  0
 14 13  2  0
 15 14  1  0
 16 15  2  0
 17 16  1  0
 17  2  2  0
 18  9  1  0
 19  4  1  0
 19  3  1  0
 20  5  2  0
 21 20  1  0
 21  7  1  0
 21  6  1  0
 22  8  1  0
 22  9  2  0
 23  3  2  0
M  END
>  <smiles>  (64) 
Cc1cc(-c2ccccc2C(=O)Nc2cnn(C)c2)cnc1F

>  <inchikey>  (64) 
KJYDMCVPVRPDHU-UHFFFAOYSA-N

>  <alias>  (64) 
Z1288a

$$$$
Z1291a
     RDKit          3D

 26 27  0  0  0  0  0  0  0  0999 V2000
   -9.1750    1.6300   -7.4130 C   0  0  0  0  0  0  0  0  0  0  0  0
   -8.0230    4.4660  -18.4980 C   0  0  0  0  0  0  0  0  0  0  0  0
   -6.9630    5.0830  -17.8410 C   0  0  0  0  0  0  0  0  0  0  0  0
   -5.6960    5.5020  -18.5390 C   0  0  0  0  0  0  0  0  0  0  0  0
   -4.4590    5.6740  -20.7490 C   0  0  1  0  0  0  0  0  0  0  0  0
   -4.8640    5.4140  -22.2020 C   0  0  0  0  0  0  0  0  0  0  0  0
   -3.2080    4.8650  -20.4030 C   0  0  0  0  0  0  0  0  0  0  0  0
   -4.1470    7.1660  -20.6170 C   0  0  0  0  0  0  0  0  0  0  0  0
   -7.0620    5.3040  -16.4670 C   0  0  0  0  0  0  0  0  0  0  0  0
   -7.9180    5.9690  -11.6020 C   0  0  0  0  0  0  0  0  0  0  0  0
   -7.1170    1.9640   -8.6250 C   0  0  0  0  0  0  0  0  0  0  0  0
   -8.7680    3.7190   -8.5490 C   0  0  0  0  0  0  0  0  0  0  0  0
   -8.3350    4.3830   -9.8190 C   0  0  0  0  0  0  0  0  0  0  0  0
   -8.0510    4.6830  -12.0080 C   0  0  0  0  0  0  0  0  0  0  0  0
   -7.9620    4.1650  -13.4090 C   0  0  0  0  0  0  0  0  0  0  0  0
   -8.2090    4.9260  -15.7670 C   0  0  0  0  0  0  0  0  0  0  0  0
   -9.2580    4.3120  -16.4400 C   0  0  0  0  0  0  0  0  0  0  0  0
   -9.1490    4.1020  -17.7990 C   0  0  0  0  0  0  0  0  0  0  0  0
   -8.5430    2.2720   -8.5680 N   0  0  0  0  0  0  0  0  0  0  0  0
   -8.2590    3.7800  -10.9720 N   0  0  0  0  0  0  0  0  0  0  0  0
   -8.3200    5.1560  -14.4020 N   0  0  0  0  0  0  0  0  0  0  0  0
   -5.5920    5.2690  -19.8550 N   0  0  0  0  0  0  0  0  0  0  0  0
   -4.7890    6.0280  -17.8960 O   0  0  0  0  0  0  0  0  0  0  0  0
   -5.2530    7.9910  -20.9370 O   0  0  0  0  0  0  0  0  0  0  0  0
   -7.9390    6.0640   -9.8870 S   0  0  0  0  0  0  0  0  0  0  0  0
  -10.4790    3.3460  -18.6280 Cl  0  0  0  0  0  0  0  0  0  0  0  0
  3  2  2  0
  4  3  1  0
  5  6  1  6
  7  5  1  0
  8  5  1  0
  9  3  1  0
 13 12  1  0
 14 10  2  0
 15 14  1  0
 16  9  2  0
 17 16  1  0
 18 17  2  0
 18  2  1  0
 19 12  1  0
 19 11  1  0
 19  1  1  0
 20 14  1  0
 20 13  2  0
 21 16  1  0
 21 15  1  0
 22  4  1  0
 22  5  1  0
 23  4  2  0
 24  8  1  0
 25 13  1  0
 25 10  1  0
 26 18  1  0
M  END
>  <smiles>  (65) 
CN(C)Cc1nc(CNc2cc(Cl)cc(C(=O)NC(C)(C)CO)c2)cs1

>  <inchikey>  (65) 
HTINJLWXAVBVIH-UHFFFAOYSA-N

>  <alias>  (65) 
Z1291a

$$$$
Z1317a
     RDKit          3D

 29 32  0  0  0  0  0  0  0  0999 V2000
   -7.3480    8.6630  -13.1820 C   0  0  0  0  0  0  0  0  0  0  0  0
   -8.4460    4.5730  -10.8670 C   0  0  0  0  0  0  0  0  0  0  0  0
   -8.5840    5.5150  -11.8780 C   0  0  0  0  0  0  0  0  0  0  0  0
   -7.4350    5.3440  -14.0260 C   0  0  0  0  0  0  0  0  0  0  0  0
   -7.5840    4.9090  -15.4560 C   0  0  0  0  0  0  0  0  0  0  0  0
   -8.8350    4.6380  -15.9500 C   0  0  0  0  0  0  0  0  0  0  0  0
   -9.0200    4.2640  -17.2950 C   0  0  0  0  0  0  0  0  0  0  0  0
   -7.9520    4.1760  -18.1400 C   0  0  0  0  0  0  0  0  0  0  0  0
   -6.6440    4.4550  -17.6790 C   0  0  0  0  0  0  0  0  0  0  0  0
   -4.3930    4.5990  -18.1260 C   0  0  0  0  0  0  0  0  0  0  0  0
   -4.0910    4.9800  -16.8050 C   0  0  0  0  0  0  0  0  0  0  0  0
   -8.7700    6.8700  -11.5700 C   0  0  0  0  0  0  0  0  0  0  0  0
   -5.1100    5.0940  -15.9060 C   0  0  0  0  0  0  0  0  0  0  0  0
   -6.4440    4.8260  -16.3180 C   0  0  0  0  0  0  0  0  0  0  0  0
   -8.8580    7.2540  -10.2390 C   0  0  0  0  0  0  0  0  0  0  0  0
   -8.7340    6.3190   -9.2340 C   0  0  0  0  0  0  0  0  0  0  0  0
   -8.5320    4.9660   -9.5320 C   0  0  0  0  0  0  0  0  0  0  0  0
   -7.5050    4.2560   -7.4110 C   0  0  0  0  0  0  0  0  0  0  0  0
   -7.9790    3.5400   -6.1620 C   0  0  0  0  0  0  0  0  0  0  0  0
   -8.8860    1.8040   -7.5750 C   0  0  0  0  0  0  0  0  0  0  0  0
   -8.5970    2.6080   -8.8310 C   0  0  0  0  0  0  0  0  0  0  0  0
   -8.4480    4.0300   -8.5100 N   0  0  0  0  0  0  0  0  0  0  0  0
   -9.1270    2.6810   -6.4370 N   0  0  0  0  0  0  0  0  0  0  0  0
   -8.4710    5.0540  -13.2040 N   0  0  0  0  0  0  0  0  0  0  0  0
   -5.6080    4.3380  -18.5710 N   0  0  0  0  0  0  0  0  0  0  0  0
   -9.5640    7.5290  -13.9520 O   0  0  0  0  0  0  0  0  0  0  0  0
   -9.6690    9.2260  -12.1810 O   0  0  0  0  0  0  0  0  0  0  0  0
   -6.4570    5.9800  -13.6600 O   0  0  0  0  0  0  0  0  0  0  0  0
   -8.9710    8.1310  -12.7900 S   0  0  2  0  0  0  0  0  0  0  0  0
  3  2  2  0
  5  4  1  0
  6  5  2  0
  7  6  1  0
  8  7  2  0
  9  8  1  0
 11 10  1  0
 12  3  1  0
 13 11  2  0
 14  9  2  0
 14  5  1  0
 14 13  1  0
 15 12  2  0
 16 15  1  0
 17  2  1  0
 17 16  2  0
 19 18  1  0
 21 20  1  0
 22 21  1  0
 22 18  1  0
 22 17  1  0
 23 20  1  0
 23 19  1  0
 24  4  1  0
 24  3  1  0
 25  9  1  0
 25 10  2  0
 28  4  2  0
 29 27  2  0
 29 26  2  0
 29 12  1  0
 29  1  1  6
M  END
>  <smiles>  (66) 
CS(=O)(=O)c1ccc(N2CCNCC2)cc1NC(=O)c1cccc2ncccc12

>  <inchikey>  (66) 
FYNLNQWOIBMINH-UHFFFAOYSA-N

>  <alias>  (66) 
Z1317a

$$$$
Z1320a
     RDKit          3D

 23 25  0  0  0  0  0  0  0  0999 V2000
   -1.7040    7.4030  -13.9710 C   0  0  0  0  0  0  0  0  0  0  0  0
   -9.1690    4.1890  -16.2320 C   0  0  0  0  0  0  0  0  0  0  0  0
   -7.9850    4.8050  -15.8090 C   0  0  0  0  0  0  0  0  0  0  0  0
   -7.9260    5.2080  -14.3630 C   0  0  0  0  0  0  0  0  0  0  0  0
   -8.1830    4.4350  -12.0420 C   0  0  0  0  0  0  0  0  0  0  0  0
   -8.3420    3.4560  -11.0500 C   0  0  0  0  0  0  0  0  0  0  0  0
   -7.8230    6.1910   -8.8840 C   0  0  0  0  0  0  0  0  0  0  0  0
   -7.9600    5.6190  -11.3380 C   0  0  0  0  0  0  0  0  0  0  0  0
   -4.7300    5.0340  -15.5420 C   0  0  0  0  0  0  0  0  0  0  0  0
   -3.2070    6.7270  -15.7110 C   0  0  0  0  0  0  0  0  0  0  0  0
   -4.0320    7.4500  -16.5760 C   0  0  0  0  0  0  0  0  0  0  0  0
   -5.2470    6.9010  -16.9070 C   0  0  0  0  0  0  0  0  0  0  0  0
   -5.6420    5.6710  -16.3830 C   0  0  0  0  0  0  0  0  0  0  0  0
   -6.9560    5.0460  -16.7440 C   0  0  0  0  0  0  0  0  0  0  0  0
   -7.1590    4.6220  -18.0620 C   0  0  0  0  0  0  0  0  0  0  0  0
   -8.3340    4.0130  -18.4580 C   0  0  0  0  0  0  0  0  0  0  0  0
   -9.3390    3.7980  -17.5430 C   0  0  0  0  0  0  0  0  0  0  0  0
   -8.2400    4.2550  -13.4360 N   0  0  0  0  0  0  0  0  0  0  0  0
   -8.2320    3.9610   -9.8300 N   0  0  0  0  0  0  0  0  0  0  0  0
   -7.9960    5.2970  -10.0250 N   0  0  0  0  0  0  0  0  0  0  0  0
   -3.5290    5.5510  -15.1970 N   0  0  0  0  0  0  0  0  0  0  0  0
   -2.0020    7.2490  -15.3690 O   0  0  0  0  0  0  0  0  0  0  0  0
   -7.6320    6.3510  -14.0490 O   0  0  0  0  0  0  0  0  0  0  0  0
  3  2  2  0
  4  3  1  0
  6  5  1  0
  8  5  2  0
 11 10  1  0
 12 11  2  0
 13  9  2  0
 13 12  1  0
 14  3  1  0
 14 13  1  0
 15 14  2  0
 16 15  1  0
 17 16  2  0
 17  2  1  0
 18  5  1  0
 18  4  1  0
 19  6  2  0
 20 19  1  0
 20  8  1  0
 20  7  1  0
 21  9  1  0
 21 10  2  0
 22 10  1  0
 22  1  1  0
 23  4  2  0
M  END
>  <smiles>  (67) 
COc1ccc(-c2ccccc2C(=O)Nc2cnn(C)c2)cn1

>  <inchikey>  (67) 
FCFUOJDSXTXYGT-UHFFFAOYSA-N

>  <alias>  (67) 
Z1320a

$$$$
Z1333a
     RDKit          3D

 28 29  0  0  0  0  0  0  0  0999 V2000
   -8.2930    1.7010   -6.7950 C   0  0  0  0  0  0  0  0  0  0  0  0
   -8.8440    4.1310  -17.4590 C   0  0  0  0  0  0  0  0  0  0  0  0
   -7.7510    4.5070  -18.2140 C   0  0  0  0  0  0  0  0  0  0  0  0
   -6.5780    4.9160  -17.5760 C   0  0  0  0  0  0  0  0  0  0  0  0
   -5.3520    5.3290  -18.3510 C   0  0  0  0  0  0  0  0  0  0  0  0
   -4.3610    5.5760  -20.6630 C   0  0  2  0  0  0  0  0  0  0  0  0
   -2.9500    5.1480  -20.2490 C   0  0  0  0  0  0  0  0  0  0  0  0
   -4.7090    4.9600  -22.0200 C   0  0  0  0  0  0  0  0  0  0  0  0
   -4.4680    7.1050  -20.7730 C   0  0  0  0  0  0  0  0  0  0  0  0
   -6.5330    4.9330  -16.1820 C   0  0  0  0  0  0  0  0  0  0  0  0
   -8.0370    6.3070  -11.2460 C   0  0  0  0  0  0  0  0  0  0  0  0
   -6.8110    1.9770   -8.6800 C   0  0  0  0  0  0  0  0  0  0  0  0
   -7.8350    6.4140   -9.8840 C   0  0  0  0  0  0  0  0  0  0  0  0
   -8.1400    5.3460   -9.0590 C   0  0  0  0  0  0  0  0  0  0  0  0
   -8.9920    3.0020   -8.6940 C   0  0  0  0  0  0  0  0  0  0  0  0
   -8.6520    4.1620   -9.5910 C   0  0  0  0  0  0  0  0  0  0  0  0
   -8.8390    4.0790  -10.9670 C   0  0  0  0  0  0  0  0  0  0  0  0
   -8.5370    5.1430  -11.8050 C   0  0  0  0  0  0  0  0  0  0  0  0
   -8.7620    5.0410  -13.2890 C   0  0  0  0  0  0  0  0  0  0  0  0
   -7.6510    4.5480  -15.4360 C   0  0  0  0  0  0  0  0  0  0  0  0
   -8.8130    4.1480  -16.0790 C   0  0  0  0  0  0  0  0  0  0  0  0
   -7.8580    2.5980   -7.8630 N   0  0  0  0  0  0  0  0  0  0  0  0
   -7.6270    4.5650  -14.0550 N   0  0  0  0  0  0  0  0  0  0  0  0
   -5.3500    5.0780  -19.6620 N   0  0  0  0  0  0  0  0  0  0  0  0
   -4.3980    5.8600  -17.7810 O   0  0  0  0  0  0  0  0  0  0  0  0
   -3.4890    7.8130  -20.0260 O   0  0  0  0  0  0  0  0  0  0  0  0
   -7.9430    5.4550   -7.7130 O   0  0  0  0  0  0  0  0  0  0  0  0
  -10.3550    3.6080  -18.2090 Cl  0  0  0  0  0  0  0  0  0  0  0  0
  3  2  2  0
  4  3  1  0
  5  4  1  0
  6  7  1  1
  8  6  1  0
  9  6  1  0
 10  4  2  0
 13 11  2  0
 14 13  1  0
 16 15  1  0
 16 14  2  0
 17 16  1  0
 18 17  2  0
 18 11  1  0
 19 18  1  0
 20 10  1  0
 21  2  1  0
 21 20  2  0
 22 15  1  0
 22 12  1  0
 22  1  1  0
 23 20  1  0
 23 19  1  0
 24  5  1  0
 24  6  1  0
 25  5  2  0
 26  9  1  0
 27 14  1  0
 28  2  1  0
M  END
>  <smiles>  (68) 
CN(C)Cc1cc(CNc2cc(Cl)cc(C(=O)NC(C)(C)CO)c2)ccc1O

>  <inchikey>  (68) 
NMZQZQGOPLMGTE-UHFFFAOYSA-N

>  <alias>  (68) 
Z1333a

$$$$
Z1342a
     RDKit          3D

 19 21  0  0  0  0  0  0  0  0999 V2000
   -8.0800    5.4480   -8.5940 C   0  0  0  0  0  0  0  0  0  0  0  0
   -4.8810    5.1080  -18.4190 C   0  0  0  0  0  0  0  0  0  0  0  0
   -4.5890    5.4050  -17.0750 C   0  0  0  0  0  0  0  0  0  0  0  0
   -5.5660    5.2370  -16.1350 C   0  0  0  0  0  0  0  0  0  0  0  0
   -6.8500    4.7760  -16.5310 C   0  0  0  0  0  0  0  0  0  0  0  0
   -8.5750    2.9610  -11.0420 C   0  0  0  0  0  0  0  0  0  0  0  0
   -8.2050    5.1350  -11.0940 C   0  0  0  0  0  0  0  0  0  0  0  0
   -8.4170    4.0320  -11.9070 C   0  0  0  0  0  0  0  0  0  0  0  0
   -7.8460    4.8330  -14.1520 C   0  0  0  0  0  0  0  0  0  0  0  0
   -7.9450    4.5670  -15.6300 C   0  0  0  0  0  0  0  0  0  0  0  0
   -9.1390    4.1110  -16.1270 C   0  0  0  0  0  0  0  0  0  0  0  0
   -9.3150    3.8460  -17.4970 C   0  0  0  0  0  0  0  0  0  0  0  0
   -8.2920    4.0370  -18.3730 C   0  0  0  0  0  0  0  0  0  0  0  0
   -7.0390    4.5020  -17.9190 C   0  0  0  0  0  0  0  0  0  0  0  0
   -8.2530    4.6920   -9.8260 N   0  0  0  0  0  0  0  0  0  0  0  0
   -8.4750    3.9650  -13.3080 N   0  0  0  0  0  0  0  0  0  0  0  0
   -6.0490    4.6740  -18.8550 N   0  0  0  0  0  0  0  0  0  0  0  0
   -8.4690    3.3590   -9.7840 N   0  0  0  0  0  0  0  0  0  0  0  0
   -7.2310    5.8130  -13.7390 O   0  0  0  0  0  0  0  0  0  0  0  0
  3  2  2  0
  4  3  1  0
  5  4  2  0
  8  7  2  0
  8  6  1  0
 10  5  1  0
 10  9  1  0
 11 10  2  0
 12 11  1  0
 13 12  2  0
 14 13  1  0
 14  5  1  0
 15  7  1  0
 15  1  1  0
 16  9  1  0
 16  8  1  0
 17 14  2  0
 17  2  1  0
 18  6  2  0
 18 15  1  0
 19  9  2  0
M  END
>  <smiles>  (69) 
Cn1cc(NC(=O)c2cccc3ncccc23)cn1

>  <inchikey>  (69) 
RKNPJCYEHJEUDX-UHFFFAOYSA-N

>  <alias>  (69) 
Z1342a

$$$$
Z1390a
     RDKit          3D

 29 32  0  0  0  0  0  0  0  0999 V2000
   -7.5240    8.6310  -13.2360 C   0  0  0  0  0  0  0  0  0  0  0  0
   -8.2830    4.5190  -10.9670 C   0  0  0  0  0  0  0  0  0  0  0  0
   -8.5190    5.4860  -11.9360 C   0  0  0  0  0  0  0  0  0  0  0  0
   -7.3270    5.3510  -14.0700 C   0  0  0  0  0  0  0  0  0  0  0  0
   -7.4410    5.0360  -15.5340 C   0  0  0  0  0  0  0  0  0  0  0  0
   -8.6720    4.9640  -16.1380 C   0  0  0  0  0  0  0  0  0  0  0  0
   -8.7930    4.6990  -17.5180 C   0  0  0  0  0  0  0  0  0  0  0  0
   -7.6820    4.5230  -18.2900 C   0  0  0  0  0  0  0  0  0  0  0  0
   -6.3950    4.6050  -17.7170 C   0  0  0  0  0  0  0  0  0  0  0  0
   -4.1150    4.4830  -17.9860 C   0  0  0  0  0  0  0  0  0  0  0  0
   -3.8770    4.7420  -16.6230 C   0  0  0  0  0  0  0  0  0  0  0  0
   -8.8140    6.8030  -11.5650 C   0  0  0  0  0  0  0  0  0  0  0  0
   -4.9430    4.9300  -15.7960 C   0  0  0  0  0  0  0  0  0  0  0  0
   -6.2600    4.8600  -16.3200 C   0  0  0  0  0  0  0  0  0  0  0  0
   -8.8990    7.1320  -10.2170 C   0  0  0  0  0  0  0  0  0  0  0  0
   -8.6790    6.1670   -9.2470 C   0  0  0  0  0  0  0  0  0  0  0  0
   -8.3560    4.8480   -9.6100 C   0  0  0  0  0  0  0  0  0  0  0  0
   -7.7140    4.2450   -7.3060 C   0  0  0  0  0  0  0  0  0  0  0  0
   -8.7870    3.9110   -6.2880 C   0  0  0  0  0  0  0  0  0  0  0  0
   -8.8490    1.8040   -7.4780 C   0  0  0  0  0  0  0  0  0  0  0  0
   -9.0780    2.7360   -8.6570 C   0  0  0  0  0  0  0  0  0  0  0  0
   -8.1360    3.8600   -8.6590 N   0  0  0  0  0  0  0  0  0  0  0  0
   -8.9680    2.4670   -6.1780 N   0  0  0  0  0  0  0  0  0  0  0  0
   -8.4190    5.1260  -13.2990 N   0  0  0  0  0  0  0  0  0  0  0  0
   -5.3130    4.4110  -18.5360 N   0  0  0  0  0  0  0  0  0  0  0  0
   -9.7020    7.3890  -13.9260 O   0  0  0  0  0  0  0  0  0  0  0  0
   -9.8460    9.1240  -12.1990 O   0  0  0  0  0  0  0  0  0  0  0  0
   -6.2910    5.8160  -13.6160 O   0  0  0  0  0  0  0  0  0  0  0  0
   -9.1170    8.0450  -12.7920 S   0  0  2  0  0  0  0  0  0  0  0  0
  3  2  2  0
  5  4  1  0
  6  5  2  0
  7  6  1  0
  8  7  2  0
  9  8  1  0
 11 10  1  0
 12  3  1  0
 13 11  2  0
 14  9  2  0
 14  5  1  0
 14 13  1  0
 15 12  2  0
 16 15  1  0
 17  2  1  0
 17 16  2  0
 19 18  1  0
 21 20  1  0
 22 21  1  0
 22 18  1  0
 22 17  1  0
 23 20  1  0
 23 19  1  0
 24  4  1  0
 24  3  1  0
 25  9  1  0
 25 10  2  0
 28  4  2  0
 29 27  2  0
 29 26  2  0
 29 12  1  0
 29  1  1  6
M  END
>  <smiles>  (70) 
CS(=O)(=O)c1ccc(N2CCNCC2)cc1NC(=O)c1cccc2ncccc12

>  <inchikey>  (70) 
FYNLNQWOIBMINH-UHFFFAOYSA-N

>  <alias>  (70) 
Z1390a

$$$$
Z1398a
     RDKit          3D

 22 24  0  0  0  0  0  0  0  0999 V2000
   -1.9460    6.9490  -15.6900 C   0  0  0  0  0  0  0  0  0  0  0  0
   -8.0740    4.6110  -16.1120 C   0  0  0  0  0  0  0  0  0  0  0  0
   -7.9500    4.9800  -14.6570 C   0  0  0  0  0  0  0  0  0  0  0  0
   -8.2970    4.2130  -12.3440 C   0  0  0  0  0  0  0  0  0  0  0  0
   -8.6190    3.2520  -11.3710 C   0  0  0  0  0  0  0  0  0  0  0  0
   -7.7400    5.8390   -9.1440 C   0  0  0  0  0  0  0  0  0  0  0  0
   -7.9070    5.3320  -11.6160 C   0  0  0  0  0  0  0  0  0  0  0  0
   -4.9550    4.8990  -15.6790 C   0  0  0  0  0  0  0  0  0  0  0  0
   -3.2870    6.4050  -16.0640 C   0  0  0  0  0  0  0  0  0  0  0  0
   -5.1430    6.4720  -17.4010 C   0  0  0  0  0  0  0  0  0  0  0  0
   -5.7300    5.4190  -16.7090 C   0  0  0  0  0  0  0  0  0  0  0  0
   -7.0620    4.8440  -17.0660 C   0  0  0  0  0  0  0  0  0  0  0  0
   -7.2960    4.4600  -18.3890 C   0  0  0  0  0  0  0  0  0  0  0  0
   -8.4960    3.8990  -18.7770 C   0  0  0  0  0  0  0  0  0  0  0  0
   -9.4860    3.6880  -17.8450 C   0  0  0  0  0  0  0  0  0  0  0  0
   -9.2780    4.0360  -16.5270 C   0  0  0  0  0  0  0  0  0  0  0  0
   -3.9430    6.9750  -17.0840 N   0  0  0  0  0  0  0  0  0  0  0  0
   -8.3540    4.0510  -13.7410 N   0  0  0  0  0  0  0  0  0  0  0  0
   -8.4620    3.7150  -10.1410 N   0  0  0  0  0  0  0  0  0  0  0  0
   -8.0220    5.0000  -10.3070 N   0  0  0  0  0  0  0  0  0  0  0  0
   -3.7560    5.3830  -15.3430 N   0  0  0  0  0  0  0  0  0  0  0  0
   -7.5170    6.0730  -14.3230 O   0  0  0  0  0  0  0  0  0  0  0  0
  3  2  1  0
  5  4  1  0
  7  4  2  0
  9  1  1  0
 11  8  2  0
 11 10  1  0
 12 11  1  0
 12  2  1  0
 13 12  2  0
 14 13  1  0
 15 14  2  0
 16 15  1  0
 16  2  2  0
 17 10  2  0
 17  9  1  0
 18  4  1  0
 18  3  1  0
 19  5  2  0
 20  7  1  0
 20 19  1  0
 20  6  1  0
 21  8  1  0
 21  9  2  0
 22  3  2  0
M  END
>  <smiles>  (71) 
Cc1ncc(-c2ccccc2C(=O)Nc2cnn(C)c2)cn1

>  <inchikey>  (71) 
WYOZJAIIAKMJNP-UHFFFAOYSA-N

>  <alias>  (71) 
Z1398a

$$$$
Z1406a
     RDKit          3D

 28 29  0  0  0  0  0  0  0  0999 V2000
   -8.7240    1.4890   -6.9380 C   0  0  0  0  0  0  0  0  0  0  0  0
   -8.7420    4.1480  -17.5150 C   0  0  0  0  0  0  0  0  0  0  0  0
   -7.6170    4.5170  -18.2190 C   0  0  0  0  0  0  0  0  0  0  0  0
   -6.4650    4.9060  -17.5360 C   0  0  0  0  0  0  0  0  0  0  0  0
   -5.1960    5.2970  -18.2420 C   0  0  0  0  0  0  0  0  0  0  0  0
   -4.0530    5.5460  -20.4550 C   0  0  1  0  0  0  0  0  0  0  0  0
   -4.4850    5.2570  -21.8910 C   0  0  0  0  0  0  0  0  0  0  0  0
   -2.8560    4.6660  -20.0780 C   0  0  0  0  0  0  0  0  0  0  0  0
   -3.7000    7.0320  -20.3160 C   0  0  0  0  0  0  0  0  0  0  0  0
   -6.4590    4.9050  -16.1350 C   0  0  0  0  0  0  0  0  0  0  0  0
   -7.9840    6.2520  -11.1750 C   0  0  0  0  0  0  0  0  0  0  0  0
   -6.8790    2.2600   -8.2850 C   0  0  0  0  0  0  0  0  0  0  0  0
   -7.8060    6.2710   -9.8010 C   0  0  0  0  0  0  0  0  0  0  0  0
   -8.1660    5.1700   -9.0530 C   0  0  0  0  0  0  0  0  0  0  0  0
   -9.1250    2.8420   -8.8590 C   0  0  0  0  0  0  0  0  0  0  0  0
   -8.7070    4.0380   -9.6670 C   0  0  0  0  0  0  0  0  0  0  0  0
   -8.8760    4.0460  -11.0440 C   0  0  0  0  0  0  0  0  0  0  0  0
   -8.5240    5.1440  -11.8100 C   0  0  0  0  0  0  0  0  0  0  0  0
   -8.7270    5.1190  -13.3030 C   0  0  0  0  0  0  0  0  0  0  0  0
   -7.6110    4.5490  -15.4360 C   0  0  0  0  0  0  0  0  0  0  0  0
   -8.7570    4.1700  -16.1290 C   0  0  0  0  0  0  0  0  0  0  0  0
   -8.2110    2.5770   -7.7650 N   0  0  0  0  0  0  0  0  0  0  0  0
   -7.6270    4.5590  -14.0480 N   0  0  0  0  0  0  0  0  0  0  0  0
   -5.1970    5.2310  -19.5690 N   0  0  0  0  0  0  0  0  0  0  0  0
   -4.1930    5.6260  -17.5990 O   0  0  0  0  0  0  0  0  0  0  0  0
   -4.8000    7.9060  -20.5380 O   0  0  0  0  0  0  0  0  0  0  0  0
   -7.9890    5.1900   -7.7000 O   0  0  0  0  0  0  0  0  0  0  0  0
  -10.2020    3.6520  -18.3530 Cl  0  0  0  0  0  0  0  0  0  0  0  0
  3  2  2  0
  4  3  1  0
  5  4  1  0
  6  7  1  6
  8  6  1  0
  9  6  1  0
 10  4  2  0
 13 11  2  0
 14 13  1  0
 16 15  1  0
 16 14  2  0
 17 16  1  0
 18 17  2  0
 18 11  1  0
 19 18  1  0
 20 10  1  0
 21  2  1  0
 21 20  2  0
 22 15  1  0
 22 12  1  0
 22  1  1  0
 23 20  1  0
 23 19  1  0
 24  5  1  0
 24  6  1  0
 25  5  2  0
 26  9  1  0
 27 14  1  0
 28  2  1  0
M  END
>  <smiles>  (72) 
CN(C)Cc1cc(CNc2cc(Cl)cc(C(=O)NC(C)(C)CO)c2)ccc1O

>  <inchikey>  (72) 
NMZQZQGOPLMGTE-UHFFFAOYSA-N

>  <alias>  (72) 
Z1406a

$$$$
Z1413a
     RDKit          3D

 22 25  0  0  0  0  0  0  0  0999 V2000
   -7.8130    5.5390  -13.1710 C   0  0  0  0  0  0  0  0  0  0  0  0
   -5.0210    5.5900  -15.7070 C   0  0  0  0  0  0  0  0  0  0  0  0
   -5.5960    5.0830  -16.8350 C   0  0  0  0  0  0  0  0  0  0  0  0
   -6.9480    4.6760  -16.8260 C   0  0  0  0  0  0  0  0  0  0  0  0
   -8.7270    3.7810  -17.9680 C   0  0  0  0  0  0  0  0  0  0  0  0
   -9.5590    3.8620  -16.8350 C   0  0  0  0  0  0  0  0  0  0  0  0
   -9.0570    4.3670  -15.6670 C   0  0  0  0  0  0  0  0  0  0  0  0
   -7.7080    4.7920  -15.6240 C   0  0  0  0  0  0  0  0  0  0  0  0
   -8.2280    4.5980  -10.9690 C   0  0  0  0  0  0  0  0  0  0  0  0
   -8.3630    5.7870  -10.2560 C   0  0  0  0  0  0  0  0  0  0  0  0
   -8.4450    3.5760  -10.0690 C   0  0  0  0  0  0  0  0  0  0  0  0
   -8.4360    2.0870  -10.2180 C   0  0  0  0  0  0  0  0  0  0  0  0
   -9.3090    2.0080   -7.9270 C   0  0  0  0  0  0  0  0  0  0  0  0
   -9.0050    3.4560   -7.6210 C   0  0  0  0  0  0  0  0  0  0  0  0
   -7.0800    5.3380  -14.4610 C   0  0  0  0  0  0  0  0  0  0  0  0
   -5.7680    5.7290  -14.5230 C   0  0  0  0  0  0  0  0  0  0  0  0
   -7.9340    4.4820  -12.3330 N   0  0  0  0  0  0  0  0  0  0  0  0
   -8.6570    5.5150   -8.9910 N   0  0  0  0  0  0  0  0  0  0  0  0
   -8.7030    4.1420   -8.8710 N   0  0  0  0  0  0  0  0  0  0  0  0
   -8.3360    1.4670   -8.8980 N   0  0  0  0  0  0  0  0  0  0  0  0
   -7.4630    4.1540  -17.9870 N   0  0  0  0  0  0  0  0  0  0  0  0
   -8.2730    6.6500  -12.9070 O   0  0  0  0  0  0  0  0  0  0  0  0
  3  2  2  0
  4  3  1  0
  6  5  1  0
  7  6  2  0
  8  4  2  0
  8  7  1  0
 10  9  1  0
 11  9  2  0
 12 11  1  0
 14 13  1  0
 15  8  1  0
 15  1  1  0
 16 15  2  0
 16  2  1  0
 17  9  1  0
 17  1  1  0
 18 10  2  0
 19 14  1  0
 19 11  1  0
 19 18  1  0
 20 13  1  0
 20 12  1  0
 21  5  2  0
 21  4  1  0
 22  1  2  0
M  END
>  <smiles>  (73) 
O=C(Nc1cnn2c1CNCC2)c1cccc2ncccc12

>  <inchikey>  (73) 
ALEBBVRGFLOKSV-UHFFFAOYSA-N

>  <alias>  (73) 
Z1413a

$$$$
Z1451a
     RDKit          3D

 23 25  0  0  0  0  0  0  0  0999 V2000
   -1.4830    8.3730  -16.4980 C   0  0  0  0  0  0  0  0  0  0  0  0
   -9.2150    4.1840  -16.3800 C   0  0  0  0  0  0  0  0  0  0  0  0
   -7.9890    4.7400  -16.0050 C   0  0  0  0  0  0  0  0  0  0  0  0
   -7.8840    5.1600  -14.5720 C   0  0  0  0  0  0  0  0  0  0  0  0
   -8.2820    4.3900  -12.2620 C   0  0  0  0  0  0  0  0  0  0  0  0
   -8.5810    3.4000  -11.3050 C   0  0  0  0  0  0  0  0  0  0  0  0
   -7.7650    5.9490   -9.0300 C   0  0  0  0  0  0  0  0  0  0  0  0
   -7.9250    5.5080  -11.5240 C   0  0  0  0  0  0  0  0  0  0  0  0
   -5.0140    6.4360  -17.4500 C   0  0  0  0  0  0  0  0  0  0  0  0
   -3.1300    6.5540  -16.1400 C   0  0  0  0  0  0  0  0  0  0  0  0
   -3.6390    5.5770  -15.2790 C   0  0  0  0  0  0  0  0  0  0  0  0
   -4.8780    5.0430  -15.5520 C   0  0  0  0  0  0  0  0  0  0  0  0
   -5.6200    5.4730  -16.6480 C   0  0  0  0  0  0  0  0  0  0  0  0
   -6.9640    4.8900  -16.9590 C   0  0  0  0  0  0  0  0  0  0  0  0
   -7.2240    4.4540  -18.2590 C   0  0  0  0  0  0  0  0  0  0  0  0
   -8.4410    3.9060  -18.6140 C   0  0  0  0  0  0  0  0  0  0  0  0
   -9.4370    3.7700  -17.6740 C   0  0  0  0  0  0  0  0  0  0  0  0
   -1.9130    7.1130  -15.9160 N   0  0  0  0  0  0  0  0  0  0  0  0
   -8.3440    4.2560  -13.6560 N   0  0  0  0  0  0  0  0  0  0  0  0
   -8.4290    3.8500  -10.0770 N   0  0  0  0  0  0  0  0  0  0  0  0
   -8.0290    5.1510  -10.2250 N   0  0  0  0  0  0  0  0  0  0  0  0
   -3.8080    6.9800  -17.2230 N   0  0  0  0  0  0  0  0  0  0  0  0
   -7.4250    6.2510  -14.2770 O   0  0  0  0  0  0  0  0  0  0  0  0
  3  2  2  0
  4  3  1  0
  6  5  1  0
  8  5  2  0
 11 10  1  0
 12 11  2  0
 13 12  1  0
 13  9  2  0
 14  3  1  0
 14 13  1  0
 15 14  2  0
 16 15  1  0
 17 16  2  0
 17  2  1  0
 18  1  1  0
 18 10  1  0
 19  5  1  0
 19  4  1  0
 20  6  2  0
 21 20  1  0
 21  8  1  0
 21  7  1  0
 22  9  1  0
 22 10  2  0
 23  4  2  0
M  END
>  <smiles>  (74) 
CNc1ccc(-c2ccccc2C(=O)Nc2cnn(C)c2)cn1

>  <inchikey>  (74) 
WDDHZWPWZGDUBC-UHFFFAOYSA-N

>  <alias>  (74) 
Z1451a

$$$$
Z1470a
     RDKit          3D

 22 24  0  0  0  0  0  0  0  0999 V2000
   -7.2930    0.9350  -14.0960 C   0  0  0  0  0  0  0  0  0  0  0  0
   -8.0100    4.6790  -12.9240 C   0  0  0  0  0  0  0  0  0  0  0  0
   -9.1040    3.9300  -10.8590 C   0  0  0  0  0  0  0  0  0  0  0  0
   -8.5080    3.6440   -9.4950 C   0  0  0  0  0  0  0  0  0  0  0  0
   -8.2000    6.0260   -9.4520 C   0  0  0  0  0  0  0  0  0  0  0  0
   -8.0890    6.1820  -10.9550 C   0  0  0  0  0  0  0  0  0  0  0  0
   -7.8410    3.1580  -14.6110 C   0  0  0  0  0  0  0  0  0  0  0  0
   -7.3900    4.1350  -15.4680 C   0  0  0  0  0  0  0  0  0  0  0  0
   -7.2750    5.4130  -14.9860 C   0  0  0  0  0  0  0  0  0  0  0  0
   -6.7830    6.5460  -15.8360 C   0  0  0  0  0  0  0  0  0  0  0  0
   -5.6410    6.0510  -17.9070 C   0  0  0  0  0  0  0  0  0  0  0  0
   -4.4670    6.3370  -18.5770 C   0  0  0  0  0  0  0  0  0  0  0  0
   -5.5480    6.0450  -20.5420 C   0  0  0  0  0  0  0  0  0  0  0  0
   -6.7630    5.7530  -18.6530 C   0  0  0  0  0  0  0  0  0  0  0  0
   -4.4170    6.3340  -19.9090 N   0  0  0  0  0  0  0  0  0  0  0  0
   -6.7170    5.7510  -19.9840 N   0  0  0  0  0  0  0  0  0  0  0  0
   -7.5800    5.6970  -13.7080 N   0  0  0  0  0  0  0  0  0  0  0  0
   -8.3190    4.9020  -11.6220 N   0  0  0  0  0  0  0  0  0  0  0  0
   -7.6660    4.7380   -9.0220 N   0  0  0  0  0  0  0  0  0  0  0  0
   -8.1440    3.4150  -13.3510 N   0  0  0  0  0  0  0  0  0  0  0  0
   -7.9710    1.8690  -14.9470 O   0  0  0  0  0  0  0  0  0  0  0  0
   -5.6340    6.0650  -16.5350 O   0  0  0  0  0  0  0  0  0  0  0  0
  4  3  1  0
  6  5  1  0
  8  7  2  0
  9  8  1  0
 10  9  1  0
 12 11  2  0
 14 11  1  0
 15 13  2  0
 15 12  1  0
 16 14  2  0
 16 13  1  0
 17  9  2  0
 17  2  1  0
 18  2  1  0
 18  3  1  0
 18  6  1  0
 19  4  1  0
 19  5  1  0
 20  7  1  0
 20  2  2  0
 21  7  1  0
 21  1  1  0
 22 11  1  0
 22 10  1  0
M  END
>  <smiles>  (75) 
COc1cc(COc2cncnc2)nc(N2CCNCC2)n1

>  <inchikey>  (75) 
QKQGGPZKCCADEL-UHFFFAOYSA-N

>  <alias>  (75) 
Z1470a

$$$$
Z1495a
     RDKit          3D

 20 22  0  0  0  0  0  0  0  0999 V2000
   -8.7360    1.7990   -7.8470 C   0  0  0  0  0  0  0  0  0  0  0  0
   -5.3570    5.3350  -17.9900 C   0  0  0  0  0  0  0  0  0  0  0  0
   -7.3820    4.4500  -18.5970 C   0  0  0  0  0  0  0  0  0  0  0  0
   -7.7700    4.3230  -17.2700 C   0  0  0  0  0  0  0  0  0  0  0  0
   -9.1210    3.7540  -16.9350 C   0  0  0  0  0  0  0  0  0  0  0  0
   -8.3050    3.8900  -12.2830 C   0  0  0  0  0  0  0  0  0  0  0  0
   -8.3900    3.6500  -10.9020 C   0  0  0  0  0  0  0  0  0  0  0  0
   -8.5750    2.8670   -8.8760 C   0  0  0  0  0  0  0  0  0  0  0  0
   -8.4390    4.2190   -8.7550 C   0  0  0  0  0  0  0  0  0  0  0  0
   -8.1650    6.0220  -10.4880 C   0  0  0  0  0  0  0  0  0  0  0  0
   -8.0770    6.2510  -11.8030 C   0  0  0  0  0  0  0  0  0  0  0  0
   -8.1440    5.1920  -12.7210 C   0  0  0  0  0  0  0  0  0  0  0  0
   -8.0480    5.4500  -14.1960 C   0  0  0  0  0  0  0  0  0  0  0  0
   -6.8810    4.7370  -16.2740 C   0  0  0  0  0  0  0  0  0  0  0  0
   -5.6480    5.2480  -16.6520 C   0  0  0  0  0  0  0  0  0  0  0  0
   -8.3250    4.7330  -10.0350 N   0  0  0  0  0  0  0  0  0  0  0  0
   -7.2500    4.6200  -14.9030 N   0  0  0  0  0  0  0  0  0  0  0  0
   -6.1890    4.9450  -18.9610 N   0  0  0  0  0  0  0  0  0  0  0  0
   -8.5470    2.5150  -10.2150 N   0  0  0  0  0  0  0  0  0  0  0  0
   -8.6860    6.3600  -14.7110 O   0  0  0  0  0  0  0  0  0  0  0  0
  4  3  1  0
  5  4  1  0
  7  6  1  0
  8  1  1  0
  9  8  2  0
 11 10  2  0
 12  6  2  0
 12 11  1  0
 13 12  1  0
 14  4  2  0
 15 14  1  0
 15  2  2  0
 16  7  1  0
 16  9  1  0
 16 10  1  0
 17 14  1  0
 17 13  1  0
 18  3  2  0
 18  2  1  0
 19  7  2  0
 19  8  1  0
 20 13  2  0
M  END
>  <smiles>  (76) 
Cc1cn2ccc(C(=O)Nc3ccncc3C)cc2n1

>  <inchikey>  (76) 
FOMZSURVVLMOJM-UHFFFAOYSA-N

>  <alias>  (76) 
Z1495a

$$$$
Z1596a
     RDKit          3D

 26 29  0  0  0  0  0  0  0  0999 V2000
  -10.1880    4.4400  -18.4650 C   0  0  0  0  0  0  0  0  0  0  0  0
   -2.6000    3.4900  -13.1670 C   0  0  0  0  0  0  0  0  0  0  0  0
   -3.9560    1.9030  -13.1250 C   0  0  0  0  0  0  0  0  0  0  0  0
   -6.3900    5.2190  -17.2730 C   0  0  0  0  0  0  0  0  0  0  0  0
   -5.7220    5.3200  -19.6440 C   0  0  0  0  0  0  0  0  0  0  0  0
   -4.4350    5.4620  -20.4290 C   0  0  0  0  0  0  0  0  0  0  0  0
   -4.0620    7.3630  -18.9810 C   0  0  0  0  0  0  0  0  0  0  0  0
   -4.2400    6.2690  -17.9450 C   0  0  0  0  0  0  0  0  0  0  0  0
   -8.5160    4.5230  -16.7640 C   0  0  0  0  0  0  0  0  0  0  0  0
   -8.2270    4.6130  -15.4170 C   0  0  0  0  0  0  0  0  0  0  0  0
   -6.9610    5.0020  -15.0420 C   0  0  0  0  0  0  0  0  0  0  0  0
   -6.5380    5.1360  -13.6060 C   0  0  0  0  0  0  0  0  0  0  0  0
   -4.1230    5.3300  -13.4190 C   0  0  0  0  0  0  0  0  0  0  0  0
   -3.0310    6.1540  -13.4170 C   0  0  0  0  0  0  0  0  0  0  0  0
   -1.7420    5.5990  -13.2850 C   0  0  0  0  0  0  0  0  0  0  0  0
   -0.5210    6.4640  -13.2770 C   0  0  0  0  0  0  0  0  0  0  0  0
   -1.4840    4.2550  -13.1650 N   0  0  0  0  0  0  0  0  0  0  0  0
   -2.6450    2.1660  -13.0620 N   0  0  0  0  0  0  0  0  0  0  0  0
   -4.7550    2.9690  -13.2620 N   0  0  0  0  0  0  0  0  0  0  0  0
   -3.8640    3.9790  -13.2850 N   0  0  0  0  0  0  0  0  0  0  0  0
   -6.0400    5.3090  -15.9700 N   0  0  0  0  0  0  0  0  0  0  0  0
   -5.4560    5.5040  -18.2210 N   0  0  0  0  0  0  0  0  0  0  0  0
   -3.9130    6.8220  -20.3300 N   0  0  0  0  0  0  0  0  0  0  0  0
   -7.6080    4.8150  -17.6950 N   0  0  0  0  0  0  0  0  0  0  0  0
   -9.7470    4.1260  -17.1360 O   0  0  0  0  0  0  0  0  0  0  0  0
   -5.3400    5.9290  -13.5390 O   0  0  0  0  0  0  0  0  0  0  0  0
  6  5  1  0
  8  7  1  0
 10  9  2  0
 11 10  1  0
 12 11  1  0
 14 13  2  0
 15 14  1  0
 16 15  1  0
 17  2  1  0
 17 15  2  0
 18  3  1  0
 18  2  2  0
 19  3  2  0
 20 19  1  0
 20 13  1  0
 20  2  1  0
 21  4  1  0
 21 11  2  0
 22  5  1  0
 22  4  1  0
 22  8  1  0
 23  7  1  0
 23  6  1  0
 24  9  1  0
 24  4  2  0
 25  9  1  0
 25  1  1  0
 26 12  1  0
 26 13  1  0
M  END
>  <smiles>  (77) 
COc1cc(COc2cc(C)nc3ncnn23)nc(N2CCNCC2)n1

>  <inchikey>  (77) 
CGSRTOYWSPEOSW-UHFFFAOYSA-N

>  <alias>  (77) 
Z1596a

$$$$
Z1597a
     RDKit          3D

 21 22  0  0  0  0  0  0  0  0999 V2000
   -4.1900    6.4750  -21.0290 C   0  0  0  0  0  0  0  0  0  0  0  0
   -8.2920    3.1190  -11.4430 C   0  0  0  0  0  0  0  0  0  0  0  0
   -8.1170    3.0720  -10.0850 C   0  0  0  0  0  0  0  0  0  0  0  0
   -8.1230    5.3530   -9.8990 C   0  0  0  0  0  0  0  0  0  0  0  0
   -8.3010    5.5100  -11.2660 C   0  0  0  0  0  0  0  0  0  0  0  0
   -8.4010    6.8960  -11.8580 C   0  0  0  0  0  0  0  0  0  0  0  0
   -6.9650    5.1150  -16.7210 C   0  0  0  0  0  0  0  0  0  0  0  0
   -4.0890    5.2320  -20.2020 C   0  0  0  0  0  0  0  0  0  0  0  0
   -4.8430    5.3200  -18.8940 C   0  0  0  0  0  0  0  0  0  0  0  0
   -7.1340    4.8450  -18.0790 C   0  0  0  0  0  0  0  0  0  0  0  0
   -8.2670    4.1410  -18.4720 C   0  0  0  0  0  0  0  0  0  0  0  0
   -9.0030    3.9620  -16.3110 C   0  0  0  0  0  0  0  0  0  0  0  0
   -7.9120    4.6610  -15.8110 C   0  0  0  0  0  0  0  0  0  0  0  0
   -7.6790    4.9570  -14.3570 C   0  0  0  0  0  0  0  0  0  0  0  0
   -8.3880    4.3590  -12.0580 C   0  0  0  0  0  0  0  0  0  0  0  0
   -6.1890    5.2950  -19.0270 N   0  0  0  0  0  0  0  0  0  0  0  0
   -9.1920    3.7030  -17.6100 N   0  0  0  0  0  0  0  0  0  0  0  0
   -8.5730    4.4660  -13.4670 N   0  0  0  0  0  0  0  0  0  0  0  0
   -8.0320    4.1520   -9.3040 N   0  0  0  0  0  0  0  0  0  0  0  0
   -4.2760    5.4160  -17.8120 O   0  0  0  0  0  0  0  0  0  0  0  0
   -6.7010    5.6150  -14.0160 O   0  0  0  0  0  0  0  0  0  0  0  0
  3  2  2  0
  5  4  1  0
  6  5  1  0
  8  1  1  0
  9  8  1  0
 10  7  2  0
 11 10  1  0
 13  7  1  0
 13 12  2  0
 14 13  1  0
 15  2  1  0
 15  5  2  0
 16 10  1  0
 16  9  1  0
 17 11  2  0
 17 12  1  0
 18 15  1  0
 18 14  1  0
 19  4  2  0
 19  3  1  0
 20  9  2  0
 21 14  2  0
M  END
>  <smiles>  (78) 
CCC(=O)Nc1cncc(C(=O)Nc2ccncc2C)c1

>  <inchikey>  (78) 
ZVXOEORUBXTFDQ-UHFFFAOYSA-N

>  <alias>  (78) 
Z1597a

$$$$
Z1664a
     RDKit          3D

 12 13  0  0  0  0  0  0  0  0999 V2000
   -4.4360    5.3910  -18.2400 C   0  0  0  0  0  0  0  0  0  0  0  0
   -4.4220    5.6090  -16.8280 C   0  0  0  0  0  0  0  0  0  0  0  0
   -5.5500    5.3910  -16.1170 C   0  0  0  0  0  0  0  0  0  0  0  0
   -6.7230    4.9480  -16.7730 C   0  0  0  0  0  0  0  0  0  0  0  0
   -7.9550    4.6800  -16.1110 C   0  0  0  0  0  0  0  0  0  0  0  0
   -9.0520    4.2460  -16.7940 C   0  0  0  0  0  0  0  0  0  0  0  0
   -8.9830    4.0560  -18.1860 C   0  0  0  0  0  0  0  0  0  0  0  0
   -7.8230    4.2980  -18.8610 C   0  0  0  0  0  0  0  0  0  0  0  0
   -6.6690    4.7480  -18.1810 C   0  0  0  0  0  0  0  0  0  0  0  0
   -3.3130    5.6060  -18.9590 N   0  0  0  0  0  0  0  0  0  0  0  0
   -5.5150    4.9780  -18.8970 N   0  0  0  0  0  0  0  0  0  0  0  0
   -8.0890    4.9000  -14.3950 Cl  0  0  0  0  0  0  0  0  0  0  0  0
  2  1  2  0
  3  2  1  0
  4  3  2  0
  5  4  1  0
  6  5  2  0
  7  6  1  0
  8  7  2  0
  9  8  1  0
  9  4  1  0
 10  1  1  0
 11  9  2  0
 11  1  1  0
 12  5  1  0
M  END
>  <smiles>  (79) 
Nc1ccc2c(Cl)cccc2n1

>  <inchikey>  (79) 
LFNYFPRSHXRDDH-UHFFFAOYSA-N

>  <alias>  (79) 
Z1664a

$$$$
Z1667a
     RDKit          3D

 18 19  0  0  0  0  0  0  0  0999 V2000
   -5.2630    5.5610  -18.4070 C   0  0  0  0  0  0  0  0  0  0  0  0
   -8.2920    3.2400  -11.0140 C   0  0  0  0  0  0  0  0  0  0  0  0
   -8.3320    3.3310   -9.6270 C   0  0  0  0  0  0  0  0  0  0  0  0
   -8.5180    4.5780   -9.0290 C   0  0  0  0  0  0  0  0  0  0  0  0
   -8.6540    5.7150   -9.8020 C   0  0  0  0  0  0  0  0  0  0  0  0
   -8.6160    5.6510  -11.1970 C   0  0  0  0  0  0  0  0  0  0  0  0
   -8.7680    6.9050  -12.0070 C   0  0  0  0  0  0  0  0  0  0  0  0
   -6.4680    5.1100  -17.6230 C   0  0  0  0  0  0  0  0  0  0  0  0
   -7.5930    4.6070  -18.2560 C   0  0  0  0  0  0  0  0  0  0  0  0
   -8.6950    4.1860  -17.5310 C   0  0  0  0  0  0  0  0  0  0  0  0
   -8.6810    4.2500  -16.1490 C   0  0  0  0  0  0  0  0  0  0  0  0
   -7.5620    4.7440  -15.4830 C   0  0  0  0  0  0  0  0  0  0  0  0
   -6.4660    5.1680  -16.2350 C   0  0  0  0  0  0  0  0  0  0  0  0
   -7.4320    4.8740  -13.9960 C   0  0  0  0  0  0  0  0  0  0  0  0
   -8.4370    4.3880  -11.7900 C   0  0  0  0  0  0  0  0  0  0  0  0
   -8.3690    4.2830  -13.2180 N   0  0  0  0  0  0  0  0  0  0  0  0
   -8.1990    2.1990   -8.8440 N   0  0  0  0  0  0  0  0  0  0  0  0
   -6.5020    5.5140  -13.5200 O   0  0  0  0  0  0  0  0  0  0  0  0
  3  2  2  0
  4  3  1  0
  5  4  2  0
  6  5  1  0
  7  6  1  0
  8  1  1  0
  9  8  2  0
 10  9  1  0
 11 10  2  0
 12 11  1  0
 13  8  1  0
 13 12  2  0
 14 12  1  0
 15  2  1  0
 15  6  2  0
 16 15  1  0
 16 14  1  0
 17  3  1  0
 18 14  2  0
M  END
>  <smiles>  (80) 
Cc1cccc(C(=O)Nc2cc(N)ccc2C)c1

>  <inchikey>  (80) 
ICWQDRXFBRYVRL-UHFFFAOYSA-N

>  <alias>  (80) 
Z1667a

$$$$
Z1674a
     RDKit          3D

 14 15  0  0  0  0  0  0  0  0999 V2000
   -2.4400    5.7380  -17.3780 C   0  0  0  0  0  0  0  0  0  0  0  0
   -3.8830    5.4480  -17.6660 C   0  0  0  0  0  0  0  0  0  0  0  0
   -4.3310    5.3250  -18.9950 C   0  0  0  0  0  0  0  0  0  0  0  0
   -5.6590    5.0730  -19.2520 C   0  0  0  0  0  0  0  0  0  0  0  0
   -6.5590    4.9360  -18.1520 C   0  0  0  0  0  0  0  0  0  0  0  0
   -7.9300    4.6470  -18.3010 C   0  0  0  0  0  0  0  0  0  0  0  0
   -8.7390    4.5170  -17.2080 C   0  0  0  0  0  0  0  0  0  0  0  0
   -8.2210    4.6720  -15.9330 C   0  0  0  0  0  0  0  0  0  0  0  0
   -6.8860    4.9390  -15.7320 C   0  0  0  0  0  0  0  0  0  0  0  0
   -6.0240    5.0790  -16.8500 C   0  0  0  0  0  0  0  0  0  0  0  0
   -4.6940    5.3270  -16.6270 N   0  0  0  0  0  0  0  0  0  0  0  0
   -6.2730    5.1060  -14.1160 Cl  0  0  0  0  0  0  0  0  0  0  0  0
   -9.2830    4.5200  -14.5700 Cl  0  0  0  0  0  0  0  0  0  0  0  0
   -6.1260    4.9590  -20.5410 N   0  0  0  0  0  0  0  0  0  0  0  0
  2  1  1  0
  3  2  2  0
  4  3  1  0
  5  4  2  0
  6  5  1  0
  7  6  2  0
  8  7  1  0
  9  8  2  0
 10  5  1  0
 10  9  1  0
 11 10  2  0
 11  2  1  0
 12  9  1  0
 13  8  1  0
 14  4  1  0
M  END
>  <smiles>  (81) 
Cc1cc(N)c2ccc(Cl)c(Cl)c2n1

>  <inchikey>  (81) 
YOXFYSBUBIJKKS-UHFFFAOYSA-N

>  <alias>  (81) 
Z1674a

$$$$
Z1681a
     RDKit          3D

 13 14  0  0  0  0  0  0  0  0999 V2000
   -8.0650    4.4490  -13.9110 C   0  0  0  0  0  0  0  0  0  0  0  0
   -6.4580    4.8000  -17.2000 C   0  0  0  0  0  0  0  0  0  0  0  0
   -7.8490    4.3880  -15.3920 C   0  0  0  0  0  0  0  0  0  0  0  0
   -8.8550    3.8750  -16.2330 C   0  0  0  0  0  0  0  0  0  0  0  0
   -8.6560    3.8230  -17.5930 C   0  0  0  0  0  0  0  0  0  0  0  0
   -7.4120    4.2990  -18.1210 C   0  0  0  0  0  0  0  0  0  0  0  0
   -7.0910    4.2910  -19.4960 C   0  0  0  0  0  0  0  0  0  0  0  0
   -5.8910    4.7600  -19.9470 C   0  0  0  0  0  0  0  0  0  0  0  0
   -4.9430    5.2580  -19.0410 C   0  0  0  0  0  0  0  0  0  0  0  0
   -5.2180    5.2750  -17.7090 C   0  0  0  0  0  0  0  0  0  0  0  0
   -6.6930    4.8330  -15.8550 N   0  0  0  0  0  0  0  0  0  0  0  0
   -9.6390    3.3200  -18.4220 N   0  0  0  0  0  0  0  0  0  0  0  0
   -3.9450    5.9410  -16.5060 Br  0  0  0  0  0  0  0  0  0  0  0  0
  3  1  1  0
  4  3  2  0
  5  4  1  0
  6  5  2  0
  6  2  1  0
  7  6  1  0
  8  7  2  0
  9  8  1  0
 10  2  1  0
 10  9  2  0
 11  2  2  0
 11  3  1  0
 12  5  1  0
 13 10  1  0
M  END
>  <smiles>  (82) 
Cc1cc(N)c2cccc(Br)c2n1

>  <inchikey>  (82) 
VXQZWWFUQGSMAV-UHFFFAOYSA-N

>  <alias>  (82) 
Z1681a

$$$$
Z1688a
     RDKit          3D

 17 19  0  0  0  0  0  0  0  0999 V2000
   -6.7780    7.6370  -10.7160 C   0  0  0  0  0  0  0  0  0  0  0  0
   -4.9010    5.6960  -17.8660 C   0  0  0  0  0  0  0  0  0  0  0  0
   -4.5580    6.0270  -16.5420 C   0  0  0  0  0  0  0  0  0  0  0  0
   -5.5020    5.8700  -15.5680 C   0  0  0  0  0  0  0  0  0  0  0  0
   -6.7900    5.3810  -15.9080 C   0  0  0  0  0  0  0  0  0  0  0  0
   -8.6250    4.2310  -19.0950 C   0  0  0  0  0  0  0  0  0  0  0  0
   -7.1900    6.5780  -11.6740 C   0  0  0  0  0  0  0  0  0  0  0  0
   -7.6510    5.4790  -13.5000 C   0  0  0  0  0  0  0  0  0  0  0  0
   -7.8980    4.6500  -12.4400 C   0  0  0  0  0  0  0  0  0  0  0  0
   -7.8330    5.1960  -14.9390 C   0  0  0  0  0  0  0  0  0  0  0  0
   -9.0540    4.7070  -15.3520 C   0  0  0  0  0  0  0  0  0  0  0  0
   -9.2930    4.4020  -16.7010 C   0  0  0  0  0  0  0  0  0  0  0  0
   -8.3320    4.5720  -17.6630 C   0  0  0  0  0  0  0  0  0  0  0  0
   -7.0500    5.0720  -17.2750 C   0  0  0  0  0  0  0  0  0  0  0  0
   -7.2140    6.7000  -12.9990 N   0  0  0  0  0  0  0  0  0  0  0  0
   -7.6020    5.3490  -11.3090 N   0  0  0  0  0  0  0  0  0  0  0  0
   -6.0860    5.2360  -18.2390 N   0  0  0  0  0  0  0  0  0  0  0  0
  3  2  2  0
  4  3  1  0
  5  4  2  0
  7  1  1  0
  9  8  2  0
 10  5  1  0
 10  8  1  0
 11 10  2  0
 12 11  1  0
 13 12  2  0
 13  6  1  0
 14 13  1  0
 14  5  1  0
 15  8  1  0
 15  7  2  0
 16  9  1  0
 16  7  1  0
 17 14  2  0
 17  2  1  0
M  END
>  <smiles>  (83) 
Cc1nc(-c2ccc(C)c3ncccc23)c[nH]1

>  <inchikey>  (83) 
CZFYCCZCOKYGFG-UHFFFAOYSA-N

>  <alias>  (83) 
Z1688a

$$$$
Z1713a
     RDKit          3D

 12 13  0  0  0  0  0  0  0  0999 V2000
   -4.8110    5.6400  -16.0020 C   0  0  0  0  0  0  0  0  0  0  0  0
   -5.3330    5.5240  -14.7200 C   0  0  0  0  0  0  0  0  0  0  0  0
   -6.6660    5.1020  -14.5710 C   0  0  0  0  0  0  0  0  0  0  0  0
   -6.9860    4.9030  -16.8380 C   0  0  0  0  0  0  0  0  0  0  0  0
   -7.8380    4.5840  -17.9280 C   0  0  0  0  0  0  0  0  0  0  0  0
   -7.3870    4.6810  -19.2110 C   0  0  0  0  0  0  0  0  0  0  0  0
   -6.0750    5.0970  -19.4750 C   0  0  0  0  0  0  0  0  0  0  0  0
   -5.2290    5.4080  -18.4580 C   0  0  0  0  0  0  0  0  0  0  0  0
   -5.6540    5.3250  -17.1140 C   0  0  0  0  0  0  0  0  0  0  0  0
   -3.5070    6.0550  -16.2060 N   0  0  0  0  0  0  0  0  0  0  0  0
   -7.4750    4.7890  -15.5620 N   0  0  0  0  0  0  0  0  0  0  0  0
   -9.4620    4.0710  -17.6250 Cl  0  0  0  0  0  0  0  0  0  0  0  0
  2  1  2  0
  3  2  1  0
  5  4  1  0
  6  5  2  0
  7  6  1  0
  8  7  2  0
  9  4  2  0
  9  8  1  0
  9  1  1  0
 10  1  1  0
 11  4  1  0
 11  3  2  0
 12  5  1  0
M  END
>  <smiles>  (84) 
Nc1ccnc2c(Cl)cccc12

>  <inchikey>  (84) 
OIXSIWQVJINCRY-UHFFFAOYSA-N

>  <alias>  (84) 
Z1713a

$$$$
Z1715a
     RDKit          3D

 17 18  0  0  0  0  0  0  0  0999 V2000
   -9.5980    4.1480  -18.4940 C   0  0  0  0  0  0  0  0  0  0  0  0
   -6.0650    4.9780  -17.8630 C   0  0  0  0  0  0  0  0  0  0  0  0
   -4.9910    5.3080  -20.1560 C   0  0  0  0  0  0  0  0  0  0  0  0
   -8.0720    4.3880  -13.4900 C   0  0  0  0  0  0  0  0  0  0  0  0
   -8.0390    2.9950  -12.9160 C   0  0  0  0  0  0  0  0  0  0  0  0
   -8.3170    4.4320  -17.7670 C   0  0  0  0  0  0  0  0  0  0  0  0
   -8.2980    4.3800  -16.3560 C   0  0  0  0  0  0  0  0  0  0  0  0
   -7.1240    4.6470  -15.6970 C   0  0  0  0  0  0  0  0  0  0  0  0
   -5.9490    4.9500  -16.4440 C   0  0  0  0  0  0  0  0  0  0  0  0
   -4.7010    5.2240  -15.8330 C   0  0  0  0  0  0  0  0  0  0  0  0
   -3.6150    5.5090  -16.5950 C   0  0  0  0  0  0  0  0  0  0  0  0
   -3.7320    5.5340  -18.0000 C   0  0  0  0  0  0  0  0  0  0  0  0
   -4.9140    5.2810  -18.6540 C   0  0  0  0  0  0  0  0  0  0  0  0
   -7.2460    4.7160  -18.4990 N   0  0  0  0  0  0  0  0  0  0  0  0
   -8.4330    2.8630  -11.6560 N   0  0  0  0  0  0  0  0  0  0  0  0
   -6.9550    4.6310  -14.3430 O   0  0  0  0  0  0  0  0  0  0  0  0
   -7.6640    2.0480  -13.6190 O   0  0  0  0  0  0  0  0  0  0  0  0
  5  4  1  0
  6  1  1  0
  7  6  2  0
  8  7  1  0
  9  2  1  0
  9  8  2  0
 10  9  1  0
 11 10  2  0
 12 11  1  0
 13  2  1  0
 13  3  1  0
 13 12  2  0
 14  6  1  0
 14  2  2  0
 15  5  1  0
 16  8  1  0
 16  4  1  0
 17  5  2  0
M  END
>  <smiles>  (85) 
Cc1cc(OCC(N)=O)c2cccc(C)c2n1

>  <inchikey>  (85) 
DHSQEZOXPZSKGH-UHFFFAOYSA-N

>  <alias>  (85) 
Z1715a

$$$$
Z1716a
     RDKit          3D

 18 19  0  0  0  0  0  0  0  0999 V2000
   -4.9450    8.6350  -13.4330 C   0  0  0  0  0  0  0  0  0  0  0  0
   -8.5660    4.4960  -15.6840 C   0  0  0  0  0  0  0  0  0  0  0  0
   -7.1890    4.7920  -15.5790 C   0  0  0  0  0  0  0  0  0  0  0  0
   -6.5400    5.0240  -14.3320 C   0  0  0  0  0  0  0  0  0  0  0  0
   -6.2580    4.6970  -19.2380 C   0  0  0  0  0  0  0  0  0  0  0  0
   -4.0990    7.8660  -12.4900 C   0  0  0  0  0  0  0  0  0  0  0  0
   -4.3960    5.5690  -13.0870 C   0  0  0  0  0  0  0  0  0  0  0  0
   -5.1590    5.3110  -14.3410 C   0  0  0  0  0  0  0  0  0  0  0  0
   -4.4800    5.3510  -15.5860 C   0  0  0  0  0  0  0  0  0  0  0  0
   -6.4030    4.8610  -16.7680 C   0  0  0  0  0  0  0  0  0  0  0  0
   -7.0320    4.6300  -18.0250 C   0  0  0  0  0  0  0  0  0  0  0  0
   -8.3810    4.3440  -18.0790 C   0  0  0  0  0  0  0  0  0  0  0  0
   -9.1510    4.2780  -16.8970 C   0  0  0  0  0  0  0  0  0  0  0  0
   -5.0610    5.1390  -16.7470 N   0  0  0  0  0  0  0  0  0  0  0  0
   -7.2480    4.9690  -13.1560 N   0  0  0  0  0  0  0  0  0  0  0  0
   -5.6800    4.7660  -20.2260 N   0  0  0  0  0  0  0  0  0  0  0  0
   -3.6240    6.6580  -13.1650 O   0  0  0  0  0  0  0  0  0  0  0  0
   -4.4740    4.8690  -12.1080 O   0  0  0  0  0  0  0  0  0  0  0  0
  3  2  2  0
  4  3  1  0
  6  1  1  0
  8  4  2  0
  8  7  1  0
  9  8  1  0
 10  3  1  0
 11 10  2  0
 11  5  1  0
 12 11  1  0
 13 12  2  0
 13  2  1  0
 14 10  1  0
 14  9  2  0
 15  4  1  0
 16  5  3  0
 17  7  1  0
 17  6  1  0
 18  7  2  0
M  END
>  <smiles>  (86) 
CCOC(=O)c1cnc2c(C#N)cccc2c1N

>  <inchikey>  (86) 
QGBFHTFGHPLYKS-UHFFFAOYSA-N

>  <alias>  (86) 
Z1716a

$$$$
Z1719a
     RDKit          3D

 17 19  0  0  0  0  0  0  0  0999 V2000
   -5.3800    5.3290  -15.7990 C   0  0  0  0  0  0  0  0  0  0  0  0
   -8.2900    3.3910  -12.7170 C   0  0  0  0  0  0  0  0  0  0  0  0
   -8.7670    3.2370  -11.4290 C   0  0  0  0  0  0  0  0  0  0  0  0
   -8.6530    4.2830  -10.5430 C   0  0  0  0  0  0  0  0  0  0  0  0
   -8.0650    5.4530  -10.9760 C   0  0  0  0  0  0  0  0  0  0  0  0
   -7.1810    4.7800  -14.4520 C   0  0  0  0  0  0  0  0  0  0  0  0
   -7.4930    4.6240  -16.7550 C   0  0  0  0  0  0  0  0  0  0  0  0
   -8.3170    4.3330  -17.8610 C   0  0  0  0  0  0  0  0  0  0  0  0
   -7.8330    4.4710  -19.1280 C   0  0  0  0  0  0  0  0  0  0  0  0
   -6.5120    4.8950  -19.3570 C   0  0  0  0  0  0  0  0  0  0  0  0
   -5.6890    5.1810  -18.3130 C   0  0  0  0  0  0  0  0  0  0  0  0
   -6.1590    5.0570  -16.9820 C   0  0  0  0  0  0  0  0  0  0  0  0
   -7.7210    4.6020  -13.0750 C   0  0  0  0  0  0  0  0  0  0  0  0
   -4.1050    5.7380  -15.8800 N   0  0  0  0  0  0  0  0  0  0  0  0
   -5.9080    5.1770  -14.5880 N   0  0  0  0  0  0  0  0  0  0  0  0
   -7.9820    4.4880  -15.4870 N   0  0  0  0  0  0  0  0  0  0  0  0
   -7.5940    5.6340  -12.2190 N   0  0  0  0  0  0  0  0  0  0  0  0
  3  2  2  0
  4  3  1  0
  5  4  2  0
  8  7  1  0
  9  8  2  0
 10  9  1  0
 11 10  2  0
 12 11  1  0
 12  7  1  0
 12  1  2  0
 13  6  1  0
 13  2  1  0
 14  1  1  0
 15  6  2  0
 15  1  1  0
 16  7  2  0
 16  6  1  0
 17 13  2  0
 17  5  1  0
M  END
>  <smiles>  (87) 
Nc1nc(-c2ccccn2)nc2ccccc12

>  <inchikey>  (87) 
MDJLXTFDNXURTH-UHFFFAOYSA-N

>  <alias>  (87) 
Z1719a

$$$$
Z1727a
     RDKit          3D

 25 26  0  0  0  0  0  0  0  0999 V2000
  -10.4750    7.6090  -13.6440 C   0  0  0  0  0  0  0  0  0  0  0  0
   -4.6100    6.5870  -15.4070 C   0  0  0  0  0  0  0  0  0  0  0  0
   -3.8170    6.5490  -16.5650 C   0  0  0  0  0  0  0  0  0  0  0  0
   -4.3010    6.0320  -17.7260 C   0  0  0  0  0  0  0  0  0  0  0  0
   -5.6200    5.5220  -17.7890 C   0  0  0  0  0  0  0  0  0  0  0  0
   -6.2020    4.9670  -18.9590 C   0  0  0  0  0  0  0  0  0  0  0  0
   -7.4760    4.4940  -18.9340 C   0  0  0  0  0  0  0  0  0  0  0  0
   -8.2180    4.5600  -17.7340 C   0  0  0  0  0  0  0  0  0  0  0  0
   -6.4340    5.5490  -16.6250 C   0  0  0  0  0  0  0  0  0  0  0  0
   -9.6250    4.0420  -17.6880 C   0  0  0  0  0  0  0  0  0  0  0  0
   -9.1180    7.7290  -13.0280 C   0  0  0  0  0  0  0  0  0  0  0  0
   -7.5600    6.1210  -11.9880 C   0  0  1  0  0  0  0  0  0  0  0  0
   -7.8100    4.6130  -12.0250 C   0  0  0  0  0  0  0  0  0  0  0  0
   -8.5920    4.0780  -10.8310 C   0  0  0  0  0  0  0  0  0  0  0  0
   -7.7360    3.3890   -9.7870 C   0  0  0  0  0  0  0  0  0  0  0  0
   -8.4050    3.3010   -8.4320 C   0  0  0  0  0  0  0  0  0  0  0  0
   -6.5360    6.5400  -13.0620 C   0  0  0  0  0  0  0  0  0  0  0  0
   -5.8950    6.0920  -15.4140 C   0  0  0  0  0  0  0  0  0  0  0  0
   -8.8210    6.8460  -12.0710 N   0  0  0  0  0  0  0  0  0  0  0  0
   -8.8130    1.9140   -8.1030 N   0  0  0  0  0  0  0  0  0  0  0  0
   -6.7700    6.0870  -14.3140 N   0  0  0  0  0  0  0  0  0  0  0  0
   -7.7120    5.0690  -16.6210 N   0  0  0  0  0  0  0  0  0  0  0  0
   -8.3470    8.6310  -13.3420 O   0  0  0  0  0  0  0  0  0  0  0  0
   -5.5720    7.2280  -12.7590 O   0  0  0  0  0  0  0  0  0  0  0  0
   -5.2900    4.8860  -20.4390 Cl  0  0  0  0  0  0  0  0  0  0  0  0
  3  2  2  0
  4  3  1  0
  5  4  2  0
  6  5  1  0
  7  6  2  0
  8  7  1  0
  9  5  1  0
 10  8  1  0
 11  1  1  0
 12 13  1  6
 14 13  1  0
 15 14  1  0
 16 15  1  0
 17 12  1  0
 18  9  2  0
 18  2  1  0
 19 12  1  0
 19 11  1  0
 20 16  1  0
 21 18  1  0
 21 17  1  0
 22  8  2  0
 22  9  1  0
 23 11  2  0
 24 17  2  0
 25  6  1  0
M  CHG  1  20   1
M  END
>  <smiles>  (88) 
CC(=O)N[C@@H](CCCC[NH3+])C(=O)Nc1cccc2c(Cl)cc(C)nc12

>  <inchikey>  (88) 
AORVTZWNCTUNIP-INIZCTEOSA-O

>  <alias>  (88) 
Z1727a

$$$$
Z1728a
     RDKit          3D

 22 23  0  0  0  0  0  0  0  0999 V2000
   -4.9100    4.0260  -12.9480 C   0  0  0  0  0  0  0  0  0  0  0  0
   -9.9750    4.3350  -18.2480 C   0  0  0  0  0  0  0  0  0  0  0  0
   -8.8850    4.8470  -18.8860 C   0  0  0  0  0  0  0  0  0  0  0  0
   -7.6180    4.8190  -18.2660 C   0  0  0  0  0  0  0  0  0  0  0  0
   -6.4620    5.3320  -18.8900 C   0  0  0  0  0  0  0  0  0  0  0  0
   -5.2720    5.2740  -18.2360 C   0  0  0  0  0  0  0  0  0  0  0  0
   -5.2340    4.6970  -16.9520 C   0  0  0  0  0  0  0  0  0  0  0  0
   -7.4890    4.2600  -16.9770 C   0  0  0  0  0  0  0  0  0  0  0  0
   -5.4540    2.9070  -12.1200 C   0  0  0  0  0  0  0  0  0  0  0  0
   -7.8340    2.8570  -12.7210 C   0  0  1  0  0  0  0  0  0  0  0  0
   -8.2280    3.5600  -11.4190 C   0  0  0  0  0  0  0  0  0  0  0  0
   -9.0890    2.6930  -10.5110 C   0  0  0  0  0  0  0  0  0  0  0  0
   -8.6060    2.6090   -9.0720 C   0  0  0  0  0  0  0  0  0  0  0  0
   -7.9540    3.7780  -13.9500 C   0  0  0  0  0  0  0  0  0  0  0  0
   -8.6510    3.7350  -16.3240 C   0  0  0  0  0  0  0  0  0  0  0  0
   -9.8630    3.7750  -16.9670 C   0  0  0  0  0  0  0  0  0  0  0  0
   -6.5150    2.2510  -12.6020 N   0  0  0  0  0  0  0  0  0  0  0  0
   -8.8590    1.3140   -8.4330 N   0  0  0  0  0  0  0  0  0  0  0  0
   -8.4500    3.1800  -15.0540 N   0  0  0  0  0  0  0  0  0  0  0  0
   -6.2860    4.2060  -16.3270 N   0  0  0  0  0  0  0  0  0  0  0  0
   -4.9730    2.6250  -11.0250 O   0  0  0  0  0  0  0  0  0  0  0  0
   -7.6170    4.9540  -13.9130 O   0  0  0  0  0  0  0  0  0  0  0  0
  3  2  2  0
  4  3  1  0
  5  4  2  0
  6  5  1  0
  7  6  2  0
  8  4  1  0
  9  1  1  0
 10 11  1  1
 12 11  1  0
 13 12  1  0
 14 10  1  0
 15  8  1  0
 16  2  1  0
 16 15  2  0
 17 10  1  0
 17  9  1  0
 18 13  1  0
 19 15  1  0
 19 14  1  0
 20  8  2  0
 20  7  1  0
 21  9  2  0
 22 14  2  0
M  END
>  <smiles>  (89) 
CC(=O)N[C@@H](CCCN)C(=O)Nc1cccc2cccnc12

>  <inchikey>  (89) 
XHHRODCTSKSZNG-AWEZNQCLSA-N

>  <alias>  (89) 
Z1728a

$$$$
Z1729a
     RDKit          3D

 19 21  0  0  0  0  0  0  0  0999 V2000
   -7.1900    3.0160  -13.5950 C   0  0  0  0  0  0  0  0  0  0  0  0
   -6.9590    4.4550  -16.4680 C   0  0  0  0  0  0  0  0  0  0  0  0
   -7.5600    2.7680  -12.1390 C   0  0  1  0  0  0  0  0  0  0  0  0
   -6.3130    2.3100  -11.3720 C   0  0  0  0  0  0  0  0  0  0  0  0
   -6.5060    2.3930   -9.8710 C   0  0  0  0  0  0  0  0  0  0  0  0
   -8.6030    3.6210  -10.0080 C   0  0  0  0  0  0  0  0  0  0  0  0
   -8.1860    3.9680  -11.4250 C   0  0  0  0  0  0  0  0  0  0  0  0
   -8.0550    4.0480  -15.6390 C   0  0  0  0  0  0  0  0  0  0  0  0
   -9.2460    3.6900  -16.2260 C   0  0  0  0  0  0  0  0  0  0  0  0
   -9.4010    3.7340  -17.6190 C   0  0  0  0  0  0  0  0  0  0  0  0
   -8.3720    4.1220  -18.4270 C   0  0  0  0  0  0  0  0  0  0  0  0
   -7.1310    4.4950  -17.8710 C   0  0  0  0  0  0  0  0  0  0  0  0
   -6.0410    4.8980  -18.6710 C   0  0  0  0  0  0  0  0  0  0  0  0
   -4.8650    5.2310  -18.0720 C   0  0  0  0  0  0  0  0  0  0  0  0
   -4.7780    5.1650  -16.6670 C   0  0  0  0  0  0  0  0  0  0  0  0
   -7.8390    4.0100  -14.2510 N   0  0  0  0  0  0  0  0  0  0  0  0
   -5.7720    4.7950  -15.8780 N   0  0  0  0  0  0  0  0  0  0  0  0
   -7.9320    2.4020   -9.5290 N   0  0  0  0  0  0  0  0  0  0  0  0
   -6.3530    2.3120  -14.1380 O   0  0  0  0  0  0  0  0  0  0  0  0
  3  1  1  6
  4  3  1  0
  5  4  1  0
  7  3  1  0
  7  6  1  0
  8  2  1  0
  9  8  2  0
 10  9  1  0
 11 10  2  0
 12 11  1  0
 12  2  2  0
 13 12  1  0
 14 13  2  0
 15 14  1  0
 16  8  1  0
 16  1  1  0
 17  2  1  0
 17 15  2  0
 18  6  1  0
 18  5  1  0
 19  1  2  0
M  END
>  <smiles>  (90) 
O=C(Nc1cccc2cccnc12)C1CCNCC1

>  <inchikey>  (90) 
SKJCEUNRNVCDAV-UHFFFAOYSA-N

>  <alias>  (90) 
Z1729a

$$$$
Z1730a
     RDKit          3D

 23 24  0  0  0  0  0  0  0  0999 V2000
   -5.2000    7.9180  -13.1920 C   0  0  0  0  0  0  0  0  0  0  0  0
   -5.9390    5.3280  -15.3450 C   0  0  0  0  0  0  0  0  0  0  0  0
   -5.2810    5.3550  -16.5880 C   0  0  0  0  0  0  0  0  0  0  0  0
   -5.9380    5.0220  -17.7360 C   0  0  0  0  0  0  0  0  0  0  0  0
   -7.2940    4.6370  -17.6880 C   0  0  0  0  0  0  0  0  0  0  0  0
   -8.0140    4.2750  -18.8390 C   0  0  0  0  0  0  0  0  0  0  0  0
   -9.3150    3.9060  -18.7110 C   0  0  0  0  0  0  0  0  0  0  0  0
   -9.9050    3.9100  -17.4350 C   0  0  0  0  0  0  0  0  0  0  0  0
   -7.9640    4.5990  -16.4460 C   0  0  0  0  0  0  0  0  0  0  0  0
   -6.5260    8.2440  -12.5800 C   0  0  0  0  0  0  0  0  0  0  0  0
   -7.3040    5.9840  -12.0430 C   0  0  1  0  0  0  0  0  0  0  0  0
   -7.8550    5.2320  -10.8330 C   0  0  0  0  0  0  0  0  0  0  0  0
   -7.9130    3.7190  -10.9920 C   0  0  0  0  0  0  0  0  0  0  0  0
   -7.6570    2.9380   -9.7120 C   0  0  0  0  0  0  0  0  0  0  0  0
   -8.8630    2.8570   -8.8010 C   0  0  0  0  0  0  0  0  0  0  0  0
   -8.2570    5.9090  -13.2450 C   0  0  0  0  0  0  0  0  0  0  0  0
   -7.2610    4.9560  -15.2620 C   0  0  0  0  0  0  0  0  0  0  0  0
   -7.0360    7.3710  -11.7040 N   0  0  0  0  0  0  0  0  0  0  0  0
   -8.9180    1.5600   -8.0840 N   0  0  0  0  0  0  0  0  0  0  0  0
   -8.0190    4.8920  -14.0920 N   0  0  0  0  0  0  0  0  0  0  0  0
   -9.2720    4.2280  -16.3240 N   0  0  0  0  0  0  0  0  0  0  0  0
   -7.1460    9.2550  -12.9020 O   0  0  0  0  0  0  0  0  0  0  0  0
   -9.1410    6.7390  -13.4220 O   0  0  0  0  0  0  0  0  0  0  0  0
  3  2  2  0
  4  3  1  0
  5  4  2  0
  6  5  1  0
  7  6  2  0
  8  7  1  0
  9  5  1  0
 10  1  1  0
 11 12  1  1
 13 12  1  0
 14 13  1  0
 15 14  1  0
 16 11  1  0
 17  9  2  0
 17  2  1  0
 18 11  1  0
 18 10  1  0
 19 15  1  0
 20 17  1  0
 20 16  1  0
 21  9  1  0
 21  8  2  0
 22 10  2  0
 23 16  2  0
M  CHG  1  19   1
M  END
>  <smiles>  (91) 
CC(=O)N[C@@H](CCCC[NH3+])C(=O)Nc1cccc2cccnc12

>  <inchikey>  (91) 
MCVRNRMKGRTNOG-HNNXBMFYSA-O

>  <alias>  (91) 
Z1730a

$$$$
Z1731a
     RDKit          3D

 22 24  0  0  0  0  0  0  0  0999 V2000
   -2.9810    5.5080  -15.5130 C   0  0  0  0  0  0  0  0  0  0  0  0
   -6.5310    4.7080  -16.0010 C   0  0  0  0  0  0  0  0  0  0  0  0
   -7.3950    3.1980  -13.0760 C   0  0  0  0  0  0  0  0  0  0  0  0
   -7.3020    3.3810  -11.5680 C   0  0  2  0  0  0  0  0  0  0  0  0
   -6.3000    2.3830  -10.9740 C   0  0  0  0  0  0  0  0  0  0  0  0
   -6.3360    2.3800   -9.4590 C   0  0  0  0  0  0  0  0  0  0  0  0
   -8.6210    3.1570   -9.4200 C   0  0  0  0  0  0  0  0  0  0  0  0
   -8.6870    3.2140  -10.9320 C   0  0  0  0  0  0  0  0  0  0  0  0
   -5.8010    5.1690  -19.7240 C   0  0  0  0  0  0  0  0  0  0  0  0
   -4.2910    5.2580  -16.1990 C   0  0  0  0  0  0  0  0  0  0  0  0
   -4.3980    5.3410  -17.6140 C   0  0  0  0  0  0  0  0  0  0  0  0
   -5.6030    5.1020  -18.2280 C   0  0  0  0  0  0  0  0  0  0  0  0
   -6.7240    4.7700  -17.4090 C   0  0  0  0  0  0  0  0  0  0  0  0
   -8.0130    4.5020  -17.9400 C   0  0  0  0  0  0  0  0  0  0  0  0
   -9.0520    4.1870  -17.1170 C   0  0  0  0  0  0  0  0  0  0  0  0
   -8.8740    4.1320  -15.7250 C   0  0  0  0  0  0  0  0  0  0  0  0
   -7.6480    4.3970  -15.1650 C   0  0  0  0  0  0  0  0  0  0  0  0
   -5.3230    4.9600  -15.4240 N   0  0  0  0  0  0  0  0  0  0  0  0
   -7.4050    4.3410  -13.7880 N   0  0  0  0  0  0  0  0  0  0  0  0
   -7.6980    2.1000   -8.9920 N   0  0  0  0  0  0  0  0  0  0  0  0
   -7.4840    2.0900  -13.5970 O   0  0  0  0  0  0  0  0  0  0  0  0
   -4.6130    5.4220  -20.4600 O   0  0  0  0  0  0  0  0  0  0  0  0
  4  3  1  6
  5  4  1  0
  6  5  1  0
  8  4  1  0
  8  7  1  0
 10  1  1  0
 11 10  2  0
 12  9  1  0
 12 11  1  0
 13 12  2  0
 13  2  1  0
 14 13  1  0
 15 14  2  0
 16 15  1  0
 17 16  2  0
 17  2  1  0
 18  2  2  0
 18 10  1  0
 19 17  1  0
 19  3  1  0
 20  7  1  0
 20  6  1  0
 21  3  2  0
 22  9  1  0
M  END
>  <smiles>  (92) 
Cc1cc(CO)c2cccc(NC(=O)C3CCNCC3)c2n1

>  <inchikey>  (92) 
AGNLJARXPNPVNI-UHFFFAOYSA-N

>  <alias>  (92) 
Z1731a

$$$$
Z1743a
     RDKit          3D

 22 24  0  0  0  0  0  0  0  0999 V2000
   -3.0300    5.5160  -15.4220 C   0  0  0  0  0  0  0  0  0  0  0  0
   -6.5960    4.8300  -15.9650 C   0  0  0  0  0  0  0  0  0  0  0  0
   -7.4560    3.2820  -13.0780 C   0  0  0  0  0  0  0  0  0  0  0  0
   -7.3100    3.4330  -11.5710 C   0  0  2  0  0  0  0  0  0  0  0  0
   -6.1670    2.5470  -11.0610 C   0  0  0  0  0  0  0  0  0  0  0  0
   -6.1380    2.4670   -9.5500 C   0  0  0  0  0  0  0  0  0  0  0  0
   -8.4920    2.9640   -9.3860 C   0  0  0  0  0  0  0  0  0  0  0  0
   -8.6360    3.0820  -10.8880 C   0  0  0  0  0  0  0  0  0  0  0  0
   -5.7570    5.3390  -19.6710 C   0  0  0  0  0  0  0  0  0  0  0  0
   -4.3390    5.3070  -16.1230 C   0  0  0  0  0  0  0  0  0  0  0  0
   -4.4250    5.4170  -17.5320 C   0  0  0  0  0  0  0  0  0  0  0  0
   -5.6230    5.2260  -18.1700 C   0  0  0  0  0  0  0  0  0  0  0  0
   -6.7690    4.9220  -17.3740 C   0  0  0  0  0  0  0  0  0  0  0  0
   -8.0580    4.7020  -17.9210 C   0  0  0  0  0  0  0  0  0  0  0  0
   -9.1170    4.4070  -17.1160 C   0  0  0  0  0  0  0  0  0  0  0  0
   -8.9570    4.3180  -15.7250 C   0  0  0  0  0  0  0  0  0  0  0  0
   -7.7300    4.5350  -15.1470 C   0  0  0  0  0  0  0  0  0  0  0  0
   -5.3860    5.0250  -15.3680 N   0  0  0  0  0  0  0  0  0  0  0  0
   -7.4960    4.4420  -13.7710 N   0  0  0  0  0  0  0  0  0  0  0  0
   -7.4370    2.0020   -9.0560 N   0  0  0  0  0  0  0  0  0  0  0  0
   -7.5450    2.1810  -13.6120 O   0  0  0  0  0  0  0  0  0  0  0  0
   -4.5370    5.1410  -20.3750 O   0  0  0  0  0  0  0  0  0  0  0  0
  4  3  1  6
  5  4  1  0
  6  5  1  0
  8  4  1  0
  8  7  1  0
 10  1  1  0
 11 10  2  0
 12  9  1  0
 12 11  1  0
 13 12  2  0
 13  2  1  0
 14 13  1  0
 15 14  2  0
 16 15  1  0
 17 16  2  0
 17  2  1  0
 18  2  2  0
 18 10  1  0
 19 17  1  0
 19  3  1  0
 20  7  1  0
 20  6  1  0
 21  3  2  0
 22  9  1  0
M  END
>  <smiles>  (93) 
Cc1cc(CO)c2cccc(NC(=O)C3CCNCC3)c2n1

>  <inchikey>  (93) 
AGNLJARXPNPVNI-UHFFFAOYSA-N

>  <alias>  (93) 
Z1743a

$$$$
Z1745a
     RDKit          3D

 11 12  0  0  0  0  0  0  0  0999 V2000
   -5.4350    5.0140  -18.6540 C   0  0  0  0  0  0  0  0  0  0  0  0
   -4.3080    5.4490  -17.9550 C   0  0  0  0  0  0  0  0  0  0  0  0
   -5.3910    5.2880  -15.9390 C   0  0  0  0  0  0  0  0  0  0  0  0
   -6.6070    4.8250  -16.5200 C   0  0  0  0  0  0  0  0  0  0  0  0
   -7.7650    4.5030  -15.7760 C   0  0  0  0  0  0  0  0  0  0  0  0
   -8.8860    4.0500  -16.4090 C   0  0  0  0  0  0  0  0  0  0  0  0
   -8.9180    3.9120  -17.8050 C   0  0  0  0  0  0  0  0  0  0  0  0
   -7.8150    4.2170  -18.5540 C   0  0  0  0  0  0  0  0  0  0  0  0
   -6.6300    4.6850  -17.9330 C   0  0  0  0  0  0  0  0  0  0  0  0
   -5.3850    4.8960  -20.0210 N   0  0  0  0  0  0  0  0  0  0  0  0
   -4.2980    5.5890  -16.6200 N   0  0  0  0  0  0  0  0  0  0  0  0
  2  1  2  0
  4  3  1  0
  5  4  2  0
  6  5  1  0
  7  6  2  0
  8  7  1  0
  9  8  2  0
  9  4  1  0
  9  1  1  0
 10  1  1  0
 11  2  1  0
 11  3  2  0
M  END
>  <smiles>  (94) 
Nc1cncc2ccccc12

>  <inchikey>  (94) 
ISIUXVGHQFJYHM-UHFFFAOYSA-N

>  <alias>  (94) 
Z1745a

$$$$
Z1750a
     RDKit          3D

 23 25  0  0  0  0  0  0  0  0999 V2000
   -3.0310    5.5600  -15.3420 C   0  0  0  0  0  0  0  0  0  0  0  0
   -7.6640    2.8460  -11.5800 C   0  0  2  0  0  0  0  0  0  0  0  0
   -8.5390    3.9140  -10.9390 C   0  0  0  0  0  0  0  0  0  0  0  0
   -8.8940    3.5270   -9.5080 C   0  0  0  0  0  0  0  0  0  0  0  0
   -8.0580    2.3590   -9.0240 C   0  0  1  0  0  0  0  0  0  0  0  0
   -6.5860    2.5400   -9.3280 C   0  0  0  0  0  0  0  0  0  0  0  0
   -6.3460    2.7500  -10.8170 C   0  0  0  0  0  0  0  0  0  0  0  0
   -5.6720    5.2990  -18.0350 C   0  0  0  0  0  0  0  0  0  0  0  0
   -5.8500    5.4520  -19.5290 C   0  0  0  0  0  0  0  0  0  0  0  0
   -4.4670    5.5050  -17.4190 C   0  0  0  0  0  0  0  0  0  0  0  0
   -4.3490    5.3440  -16.0200 C   0  0  0  0  0  0  0  0  0  0  0  0
   -6.5880    4.7770  -15.8210 C   0  0  0  0  0  0  0  0  0  0  0  0
   -6.7890    4.9230  -17.2250 C   0  0  0  0  0  0  0  0  0  0  0  0
   -8.0780    4.6810  -17.7630 C   0  0  0  0  0  0  0  0  0  0  0  0
   -9.1120    4.3200  -16.9540 C   0  0  0  0  0  0  0  0  0  0  0  0
   -8.9300    4.1910  -15.5700 C   0  0  0  0  0  0  0  0  0  0  0  0
   -7.7110    4.4440  -14.9920 C   0  0  0  0  0  0  0  0  0  0  0  0
   -7.4650    2.9970  -13.0820 C   0  0  0  0  0  0  0  0  0  0  0  0
   -5.3700    4.9980  -15.2510 N   0  0  0  0  0  0  0  0  0  0  0  0
   -7.4900    4.2450  -13.6190 N   0  0  0  0  0  0  0  0  0  0  0  0
   -8.2550    2.1570   -7.5520 N   0  0  0  0  0  0  0  0  0  0  0  0
   -7.3330    1.9920  -13.7650 O   0  0  0  0  0  0  0  0  0  0  0  0
   -4.6270    5.4490  -20.2590 O   0  0  0  0  0  0  0  0  0  0  0  0
  3  2  1  0
  4  3  1  0
  5  4  1  0
  6  5  1  0
  7  2  1  0
  7  6  1  0
  9  8  1  0
 10  8  2  0
 11 10  1  0
 11  1  1  0
 13  8  1  0
 13 12  2  0
 14 13  1  0
 15 14  2  0
 16 15  1  0
 17 16  2  0
 17 12  1  0
  2 18  1  6
 19 12  1  0
 19 11  2  0
 20 18  1  0
 20 17  1  0
  5 21  1  1
 22 18  2  0
 23  9  1  0
M  CHG  1  21   1
M  END
>  <smiles>  (95) 
Cc1cc(CO)c2cccc(NC(=O)[C@H]3CC[C@@H]([NH3+])CC3)c2n1

>  <inchikey>  (95) 
FESPEQJYTGMRLU-XBXGTLAGSA-O

>  <alias>  (95) 
Z1750a

$$$$
Z1752a
     RDKit          3D

 22 23  0  0  0  0  0  0  0  0999 V2000
   -8.6150    4.4460   -8.9850 C   0  0  0  0  0  0  0  0  0  0  0  0
   -8.8730    4.3530  -17.3580 C   0  0  0  0  0  0  0  0  0  0  0  0
   -7.8430    4.5870  -18.2230 C   0  0  0  0  0  0  0  0  0  0  0  0
   -6.5410    4.8260  -17.7350 C   0  0  0  0  0  0  0  0  0  0  0  0
   -6.3140    4.8220  -16.3410 C   0  0  0  0  0  0  0  0  0  0  0  0
   -4.0820    5.2660  -16.6470 C   0  0  0  0  0  0  0  0  0  0  0  0
   -4.2190    5.2890  -18.0490 C   0  0  0  0  0  0  0  0  0  0  0  0
   -5.4470    5.0690  -18.5930 C   0  0  0  0  0  0  0  0  0  0  0  0
   -7.8250    3.2720   -9.4690 C   0  0  0  0  0  0  0  0  0  0  0  0
   -7.7720    4.2370  -11.7480 C   0  0  1  0  0  0  0  0  0  0  0  0
   -7.1700    5.6260  -11.5190 C   0  0  0  0  0  0  0  0  0  0  0  0
   -7.9920    6.7630  -12.1110 C   0  0  0  0  0  0  0  0  0  0  0  0
   -7.2070    8.0590  -12.2410 C   0  0  0  0  0  0  0  0  0  0  0  0
   -7.4480    3.6780  -13.1550 C   0  0  0  0  0  0  0  0  0  0  0  0
   -7.4090    4.5770  -15.4530 C   0  0  0  0  0  0  0  0  0  0  0  0
   -8.6620    4.3470  -15.9680 C   0  0  0  0  0  0  0  0  0  0  0  0
   -7.3400    3.3040  -10.7180 N   0  0  0  0  0  0  0  0  0  0  0  0
   -6.3320    8.3550  -11.1020 N   0  0  0  0  0  0  0  0  0  0  0  0
   -7.0900    4.5870  -14.0890 N   0  0  0  0  0  0  0  0  0  0  0  0
   -5.0760    5.0440  -15.8060 N   0  0  0  0  0  0  0  0  0  0  0  0
   -7.6210    2.3050   -8.7400 O   0  0  0  0  0  0  0  0  0  0  0  0
   -7.5090    2.4760  -13.3830 O   0  0  0  0  0  0  0  0  0  0  0  0
  3  2  2  0
  4  3  1  0
  5  4  2  0
  7  6  1  0
  8  4  1  0
  8  7  2  0
  9  1  1  0
 10 11  1  1
 12 11  1  0
 13 12  1  0
 14 10  1  0
 15  5  1  0
 16  2  1  0
 16 15  2  0
 17 10  1  0
 17  9  1  0
 18 13  1  0
 19 15  1  0
 19 14  1  0
 20  5  1  0
 20  6  2  0
 21  9  2  0
 22 14  2  0
M  END
>  <smiles>  (96) 
CC(=O)N[C@@H](CCCN)C(=O)Nc1cccc2cccnc12

>  <inchikey>  (96) 
XHHRODCTSKSZNG-AWEZNQCLSA-N

>  <alias>  (96) 
Z1752a

$$$$
Z1753a
     RDKit          3D

 21 23  0  0  0  0  0  0  0  0999 V2000
   -3.1580    5.4080  -15.3510 C   0  0  0  0  0  0  0  0  0  0  0  0
   -8.0460    2.7490  -11.7980 C   0  0  2  0  0  0  0  0  0  0  0  0
   -8.4390    4.0080  -11.0030 C   0  0  0  0  0  0  0  0  0  0  0  0
   -7.9080    3.2890   -9.7580 C   0  0  2  0  0  0  0  0  0  0  0  0
   -6.9870    2.5090  -10.7020 C   0  0  0  0  0  0  0  0  0  0  0  0
   -5.7030    5.1990  -18.1270 C   0  0  0  0  0  0  0  0  0  0  0  0
   -5.8100    5.3980  -19.6200 C   0  0  0  0  0  0  0  0  0  0  0  0
   -4.5230    5.3870  -17.4650 C   0  0  0  0  0  0  0  0  0  0  0  0
   -4.4530    5.1870  -16.0720 C   0  0  0  0  0  0  0  0  0  0  0  0
   -6.7020    4.6280  -15.9710 C   0  0  0  0  0  0  0  0  0  0  0  0
   -6.8510    4.8030  -17.3740 C   0  0  0  0  0  0  0  0  0  0  0  0
   -8.1210    4.5770  -17.9640 C   0  0  0  0  0  0  0  0  0  0  0  0
   -9.1840    4.1960  -17.2030 C   0  0  0  0  0  0  0  0  0  0  0  0
   -9.0500    4.0240  -15.8170 C   0  0  0  0  0  0  0  0  0  0  0  0
   -7.8440    4.2420  -15.1940 C   0  0  0  0  0  0  0  0  0  0  0  0
   -7.5360    2.8470  -13.2130 C   0  0  0  0  0  0  0  0  0  0  0  0
   -5.5030    4.8260  -15.3490 N   0  0  0  0  0  0  0  0  0  0  0  0
   -7.6430    4.0550  -13.8190 N   0  0  0  0  0  0  0  0  0  0  0  0
   -8.8360    2.5300   -8.9440 N   0  0  0  0  0  0  0  0  0  0  0  0
   -7.1110    1.8470  -13.7880 O   0  0  0  0  0  0  0  0  0  0  0  0
   -4.5650    5.6750  -20.2550 O   0  0  0  0  0  0  0  0  0  0  0  0
  3  2  1  0
  4  3  1  0
  5  2  1  0
  5  4  1  0
  7  6  1  0
  8  6  2  0
  9  8  1  0
  9  1  1  0
 11  6  1  0
 11 10  2  0
 12 11  1  0
 13 12  2  0
 14 13  1  0
 15 14  2  0
 15 10  1  0
  2 16  1  6
 17 10  1  0
 17  9  2  0
 18 16  1  0
 18 15  1  0
  4 19  1  6
 20 16  2  0
 21  7  1  0
M  END
>  <smiles>  (97) 
Cc1cc(CO)c2cccc(NC(=O)[C@H]3C[C@H](N)C3)c2n1

>  <inchikey>  (97) 
PWESDAOWBFUXFF-UMSPYCQHSA-N

>  <alias>  (97) 
Z1753a

$$$$
Z1756a
     RDKit          3D

 16 17  0  0  0  0  0  0  0  0999 V2000
   -7.4620    5.6740  -12.7960 C   0  0  2  0  0  0  0  0  0  0  0  0
   -8.7720    4.1980  -17.3480 C   0  0  0  0  0  0  0  0  0  0  0  0
   -9.1350    4.4110  -16.0530 C   0  0  0  0  0  0  0  0  0  0  0  0
   -7.0430    7.1360  -12.9730 C   0  0  0  0  0  0  0  0  0  0  0  0
   -8.6310    5.2660  -13.7230 C   0  0  0  0  0  0  0  0  0  0  0  0
   -8.2240    5.0210  -15.1490 C   0  0  0  0  0  0  0  0  0  0  0  0
   -6.6200    5.1920  -16.8210 C   0  0  0  0  0  0  0  0  0  0  0  0
   -7.4830    4.5910  -17.7700 C   0  0  0  0  0  0  0  0  0  0  0  0
   -7.0220    4.4030  -19.0940 C   0  0  0  0  0  0  0  0  0  0  0  0
   -5.7670    4.7980  -19.4460 C   0  0  0  0  0  0  0  0  0  0  0  0
   -4.9130    5.3940  -18.5020 C   0  0  0  0  0  0  0  0  0  0  0  0
   -5.3240    5.5870  -17.2160 C   0  0  0  0  0  0  0  0  0  0  0  0
   -7.8370    5.4720  -11.3710 N   0  0  0  0  0  0  0  0  0  0  0  0
   -7.0100    5.3970  -15.5200 N   0  0  0  0  0  0  0  0  0  0  0  0
   -7.5860    7.9700  -12.2200 O   0  0  0  0  0  0  0  0  0  0  0  0
   -6.1770    7.3860  -13.8330 O   0  0  0  0  0  0  0  0  0  0  0  0
  3  2  2  0
  4  1  1  0
  5  1  1  0
  6  5  1  0
  6  3  1  0
  8  7  2  0
  8  2  1  0
  9  8  1  0
 10  9  2  0
 11 10  1  0
 12  7  1  0
 12 11  2  0
  1 13  1  1
 14  7  1  0
 14  6  2  0
 15  4  2  0
 16  4  1  0
M  CHG  2  13   1  16  -1
M  END
>  <smiles>  (98) 
[NH3+][C@@H](Cc1ccc2ccccc2n1)C(=O)[O-]

>  <inchikey>  (98) 
CRSSRGSNAKKNNI-JTQLQIEISA-N

>  <alias>  (98) 
Z1756a

$$$$
Z1761a
     RDKit          3D

 28 31  0  0  0  0  0  0  0  0999 V2000
   -3.4700    5.5480  -14.3790 C   0  0  0  0  0  0  0  0  0  0  0  0
   -8.0600    4.7010  -15.5300 C   0  0  0  0  0  0  0  0  0  0  0  0
   -8.4090    4.6480  -14.0480 C   0  0  0  0  0  0  0  0  0  0  0  0
   -8.5180    5.9990  -13.3590 C   0  0  0  0  0  0  0  0  0  0  0  0
   -9.3400    6.9860  -13.8970 C   0  0  0  0  0  0  0  0  0  0  0  0
   -9.4690    8.2230  -13.2950 C   0  0  0  0  0  0  0  0  0  0  0  0
   -8.7890    8.4940  -12.1290 C   0  0  0  0  0  0  0  0  0  0  0  0
   -7.9760    7.5300  -11.5620 C   0  0  0  0  0  0  0  0  0  0  0  0
   -7.8250    6.2750  -12.1730 C   0  0  0  0  0  0  0  0  0  0  0  0
   -6.9580    5.2440  -11.5160 C   0  0  0  0  0  0  0  0  0  0  0  0
   -7.9270    5.2550   -9.2330 C   0  0  0  0  0  0  0  0  0  0  0  0
   -4.5180    5.3460  -15.4320 C   0  0  0  0  0  0  0  0  0  0  0  0
   -8.4700    4.1410   -8.3640 C   0  0  0  0  0  0  0  0  0  0  0  0
   -7.9400    2.8460   -8.9840 C   0  0  2  0  0  0  0  0  0  0  0  0
   -7.8240    3.1540  -10.4690 C   0  0  0  0  0  0  0  0  0  0  0  0
   -6.7430    4.9370  -15.9640 C   0  0  0  0  0  0  0  0  0  0  0  0
   -4.1600    5.3970  -16.7940 C   0  0  0  0  0  0  0  0  0  0  0  0
   -5.1090    5.2220  -17.7640 C   0  0  0  0  0  0  0  0  0  0  0  0
   -4.7240    5.2770  -19.2230 C   0  0  0  0  0  0  0  0  0  0  0  0
   -6.4600    4.9800  -17.3610 C   0  0  0  0  0  0  0  0  0  0  0  0
   -7.5160    4.7740  -18.2850 C   0  0  0  0  0  0  0  0  0  0  0  0
   -8.7830    4.5430  -17.8460 C   0  0  0  0  0  0  0  0  0  0  0  0
   -9.0490    4.5080  -16.4630 C   0  0  0  0  0  0  0  0  0  0  0  0
   -7.4970    4.5880  -10.4720 N   0  0  0  0  0  0  0  0  0  0  0  0
   -8.8210    1.7160   -8.6920 N   0  0  0  0  0  0  0  0  0  0  0  0
   -5.7590    5.1230  -15.0270 N   0  0  0  0  0  0  0  0  0  0  0  0
   -3.3750    4.8730  -19.4630 O   0  0  0  0  0  0  0  0  0  0  0  0
   -5.8500    4.9490  -11.9690 O   0  0  0  0  0  0  0  0  0  0  0  0
  3  2  1  0
  4  3  1  0
  5  4  2  0
  6  5  1  0
  7  6  2  0
  8  7  1  0
  9  8  2  0
  9  4  1  0
 10  9  1  0
 12  1  1  0
 13 11  1  0
 14 13  1  0
 15 14  1  0
 16  2  1  0
 17 12  2  0
 18 17  1  0
 19 18  1  0
 20 16  1  0
 20 18  2  0
 21 20  1  0
 22 21  2  0
 23 22  1  0
 23  2  2  0
 24 10  1  0
 24 15  1  0
 24 11  1  0
 14 25  1  6
 26 16  2  0
 26 12  1  0
 27 19  1  0
 28 10  2  0
M  END
>  <smiles>  (99) 
Cc1cc(CO)c2cccc(Cc3ccccc3C(=O)N3CC[C@@H](N)C3)c2n1

>  <inchikey>  (99) 
YLEIQVSNUNQEJJ-LJQANCHMSA-N

>  <alias>  (99) 
Z1761a

$$$$
Z1837a
     RDKit          3D

 22 24  0  0  0  0  0  0  0  0999 V2000
   -3.6030    5.7010  -15.4700 C   0  0  0  0  0  0  0  0  0  0  0  0
   -8.2320    4.3130  -15.6030 C   0  0  0  0  0  0  0  0  0  0  0  0
   -8.3120    4.4220  -14.0940 C   0  0  0  0  0  0  0  0  0  0  0  0
   -7.8410    3.2000  -13.3280 C   0  0  0  0  0  0  0  0  0  0  0  0
   -8.3020    4.3990  -11.1680 C   0  0  0  0  0  0  0  0  0  0  0  0
   -8.6760    3.7600   -9.8590 C   0  0  0  0  0  0  0  0  0  0  0  0
   -7.6460    2.6410   -9.7010 C   0  0  2  0  0  0  0  0  0  0  0  0
   -7.3560    2.1660  -11.1280 C   0  0  0  0  0  0  0  0  0  0  0  0
   -7.0360    4.6330  -16.3100 C   0  0  0  0  0  0  0  0  0  0  0  0
   -4.8040    5.2870  -16.2680 C   0  0  0  0  0  0  0  0  0  0  0  0
   -4.7160    5.2190  -17.6720 C   0  0  0  0  0  0  0  0  0  0  0  0
   -5.8030    4.8450  -18.4130 C   0  0  0  0  0  0  0  0  0  0  0  0
   -5.7160    4.7600  -19.9160 C   0  0  0  0  0  0  0  0  0  0  0  0
   -7.0220    4.5350  -17.7320 C   0  0  0  0  0  0  0  0  0  0  0  0
   -8.2020    4.1310  -18.4100 C   0  0  0  0  0  0  0  0  0  0  0  0
   -9.3360    3.8430  -17.7140 C   0  0  0  0  0  0  0  0  0  0  0  0
   -9.3430    3.9340  -16.3100 C   0  0  0  0  0  0  0  0  0  0  0  0
   -7.8470    3.2610  -11.9810 N   0  0  0  0  0  0  0  0  0  0  0  0
   -8.1210    1.5800   -8.8130 N   0  0  0  0  0  0  0  0  0  0  0  0
   -5.9170    5.0050  -15.6050 N   0  0  0  0  0  0  0  0  0  0  0  0
   -4.4030    4.9960  -20.4170 O   0  0  0  0  0  0  0  0  0  0  0  0
   -7.4620    2.1910  -13.8940 O   0  0  0  0  0  0  0  0  0  0  0  0
  3  2  1  0
  4  3  1  0
  6  5  1  0
  7  6  1  0
  8  7  1  0
  9  2  1  0
 10  1  1  0
 11 10  2  0
 12 11  1  0
 13 12  1  0
 14 12  2  0
 14  9  1  0
 15 14  1  0
 16 15  2  0
 17 16  1  0
 17  2  2  0
 18  8  1  0
 18  5  1  0
 18  4  1  0
  7 19  1  1
 20  9  2  0
 20 10  1  0
 21 13  1  0
 22  4  2  0
M  END
>  <smiles>  (100) 
Cc1cc(CO)c2cccc(CC(=O)N3CC[C@@H](N)C3)c2n1

>  <inchikey>  (100) 
UTTANBJRNNPSJV-CQSZACIVSA-N

>  <alias>  (100) 
Z1837a

$$$$
Z1838a
     RDKit          3D

 23 25  0  0  0  0  0  0  0  0999 V2000
   -3.4420    5.8480  -15.4950 C   0  0  0  0  0  0  0  0  0  0  0  0
   -8.0740    4.5000  -15.5830 C   0  0  0  0  0  0  0  0  0  0  0  0
   -8.1340    4.6520  -14.0780 C   0  0  0  0  0  0  0  0  0  0  0  0
   -7.7690    3.4200  -13.2750 C   0  0  0  0  0  0  0  0  0  0  0  0
   -7.7360    4.7880  -11.1600 C   0  0  0  0  0  0  0  0  0  0  0  0
   -8.1500    4.3530   -9.7800 C   0  0  0  0  0  0  0  0  0  0  0  0
   -7.5730    2.9430   -9.6340 C   0  0  1  0  0  0  0  0  0  0  0  0
   -8.2670    2.1030   -8.5650 C   0  0  0  0  0  0  0  0  0  0  0  0
   -7.6830    2.3580  -11.0450 C   0  0  0  0  0  0  0  0  0  0  0  0
   -6.8790    4.7850  -16.3050 C   0  0  0  0  0  0  0  0  0  0  0  0
   -4.6450    5.4240  -16.2840 C   0  0  0  0  0  0  0  0  0  0  0  0
   -4.5650    5.3240  -17.6860 C   0  0  0  0  0  0  0  0  0  0  0  0
   -5.6600    4.9480  -18.4170 C   0  0  0  0  0  0  0  0  0  0  0  0
   -5.5830    4.8380  -19.9210 C   0  0  0  0  0  0  0  0  0  0  0  0
   -6.8760    4.6610  -17.7250 C   0  0  0  0  0  0  0  0  0  0  0  0
   -8.0650    4.2540  -18.3840 C   0  0  0  0  0  0  0  0  0  0  0  0
   -9.1960    3.9900  -17.6770 C   0  0  0  0  0  0  0  0  0  0  0  0
   -9.1930    4.1120  -16.2720 C   0  0  0  0  0  0  0  0  0  0  0  0
   -7.7310    3.5320  -11.9320 N   0  0  0  0  0  0  0  0  0  0  0  0
   -9.5900    1.6060   -8.9360 N   0  0  0  0  0  0  0  0  0  0  0  0
   -5.7580    5.1630  -15.6140 N   0  0  0  0  0  0  0  0  0  0  0  0
   -4.4420    5.4900  -20.4730 O   0  0  0  0  0  0  0  0  0  0  0  0
   -7.5010    2.3620  -13.8100 O   0  0  0  0  0  0  0  0  0  0  0  0
  3  2  1  0
  4  3  1  0
  6  5  1  0
  7  6  1  0
  7  8  1  1
  9  7  1  0
 10  2  1  0
 11  1  1  0
 12 11  2  0
 13 12  1  0
 14 13  1  0
 15 13  2  0
 15 10  1  0
 16 15  1  0
 17 16  2  0
 18 17  1  0
 18  2  2  0
 19  9  1  0
 19  5  1  0
 19  4  1  0
 20  8  1  0
 21 10  2  0
 21 11  1  0
 22 14  1  0
 23  4  2  0
M  END
>  <smiles>  (101) 
Cc1cc(CO)c2cccc(CC(=O)N3CC[C@@H](CN)C3)c2n1

>  <inchikey>  (101) 
LTNTUVLYAZVEDA-ZDUSSCGKSA-N

>  <alias>  (101) 
Z1838a

$$$$
Z2057a
     RDKit          3D

 24 26  0  0  0  0  0  0  0  0999 V2000
   -2.8780    5.3900  -15.3450 C   0  0  0  0  0  0  0  0  0  0  0  0
   -4.1920    5.2620  -16.0560 C   0  0  0  0  0  0  0  0  0  0  0  0
   -4.2830    5.5390  -17.4360 C   0  0  0  0  0  0  0  0  0  0  0  0
   -5.4800    5.4220  -18.0830 C   0  0  0  0  0  0  0  0  0  0  0  0
   -5.6150    5.7400  -19.5510 C   0  0  0  0  0  0  0  0  0  0  0  0
   -4.4140    5.5320  -20.2910 O   0  0  0  0  0  0  0  0  0  0  0  0
   -6.6310    5.0500  -17.3270 C   0  0  0  0  0  0  0  0  0  0  0  0
   -7.9100    4.8860  -17.9110 C   0  0  0  0  0  0  0  0  0  0  0  0
   -8.9710    4.5150  -17.1440 C   0  0  0  0  0  0  0  0  0  0  0  0
   -8.8180    4.2750  -15.7670 C   0  0  0  0  0  0  0  0  0  0  0  0
   -7.5960    4.4110  -15.1520 C   0  0  0  0  0  0  0  0  0  0  0  0
   -7.3500    4.1720  -13.7900 N   0  0  0  0  0  0  0  0  0  0  0  0
   -7.2780    2.9920  -13.1320 C   0  0  0  0  0  0  0  0  0  0  0  0
   -7.2050    1.9040  -13.6870 O   0  0  0  0  0  0  0  0  0  0  0  0
   -7.3300    3.0830  -11.6250 C   0  0  0  0  0  0  0  0  0  0  0  0
   -8.6660    3.6070  -11.0730 C   0  0  0  0  0  0  0  0  0  0  0  0
   -8.8500    3.5520   -9.5580 C   0  0  2  0  0  0  0  0  0  0  0  0
   -7.7540    4.2800   -8.7840 C   0  0  0  0  0  0  0  0  0  0  0  0
   -7.9360    4.2550   -7.2820 C   0  0  0  0  0  0  0  0  0  0  0  0
   -8.9250    3.2510   -6.8510 N   0  0  0  0  0  0  0  0  0  0  0  0
   -8.7840    1.9690   -7.5570 C   0  0  0  0  0  0  0  0  0  0  0  0
   -9.0340    2.1310   -9.0280 C   0  0  0  0  0  0  0  0  0  0  0  0
   -6.4600    4.7920  -15.9380 C   0  0  0  0  0  0  0  0  0  0  0  0
   -5.2420    4.9080  -15.3340 N   0  0  0  0  0  0  0  0  0  0  0  0
  2  1  1  0
  3  2  2  0
  4  3  1  0
  5  4  1  0
  6  5  1  0
  7  4  2  0
  8  7  1  0
  9  8  2  0
 10  9  1  0
 11 10  2  0
 12 11  1  0
 13 12  1  0
 14 13  2  0
 15 13  1  0
 16 15  1  0
 17 16  1  6
 18 17  1  0
 19 18  1  0
 20 19  1  0
 21 20  1  0
 22 21  1  0
 22 17  1  0
 23  7  1  0
 23 11  1  0
 24 23  2  0
 24  2  1  0
M  END
>  <smiles>  (102) 
Cc1cc(CO)c2cccc(NC(=O)CCC3CCNCC3)c2n1

>  <inchikey>  (102) 
YOACLWXNCLINNH-UHFFFAOYSA-N

>  <alias>  (102) 
Z2057a

$$$$
Z2094a
     RDKit          3D

 24 27  0  0  0  0  0  0  0  0999 V2000
   -7.6160    2.0880  -13.9940 O   0  0  0  0  0  0  0  0  0  0  0  0
   -7.5410    3.3030  -13.8360 C   0  0  0  0  0  0  0  0  0  0  0  0
   -7.7490    4.1880  -15.0130 C   0  0  0  0  0  0  0  0  0  0  0  0
   -8.7410    3.9930  -15.9280 C   0  0  0  0  0  0  0  0  0  0  0  0
   -8.4630    4.9260  -17.3390 S   0  0  0  0  0  0  0  0  0  0  0  0
   -7.0350    5.5710  -16.5800 C   0  0  0  0  0  0  0  0  0  0  0  0
   -6.0410    6.4570  -17.3090 C   0  0  1  0  0  0  0  0  0  0  0  0
   -4.5960    6.0800  -16.9310 C   0  0  0  0  0  0  0  0  0  0  0  0
   -3.5660    6.6090  -17.9480 C   0  0  0  0  0  0  0  0  0  0  0  0
   -3.8890    6.1390  -19.3570 C   0  0  0  0  0  0  0  0  0  0  0  0
   -5.2610    5.6310  -19.5170 N   0  0  0  0  0  0  0  0  0  0  0  0
   -6.2380    6.4890  -18.8260 C   0  0  0  0  0  0  0  0  0  0  0  0
   -6.8970    5.2350  -15.3310 N   0  0  0  0  0  0  0  0  0  0  0  0
   -7.2200    3.7910  -12.6320 N   0  0  0  0  0  0  0  0  0  0  0  0
   -5.9590    3.4510  -11.9550 C   0  0  0  0  0  0  0  0  0  0  0  0
   -5.8460    4.5190  -10.8960 C   0  0  0  0  0  0  0  0  0  0  0  0
   -7.2890    4.7160  -10.4550 C   0  0  2  0  0  0  0  0  0  0  0  0
   -7.7490    3.8950   -9.2660 C   0  0  0  0  0  0  0  0  0  0  0  0
   -7.4450    4.3020   -7.9750 C   0  0  0  0  0  0  0  0  0  0  0  0
   -7.8830    3.5660   -6.9020 C   0  0  0  0  0  0  0  0  0  0  0  0
   -8.6200    2.4440   -7.1450 C   0  0  0  0  0  0  0  0  0  0  0  0
   -8.9480    2.0290   -8.3740 N   0  0  0  0  0  0  0  0  0  0  0  0
   -8.5130    2.7550   -9.4200 C   0  0  0  0  0  0  0  0  0  0  0  0
   -8.1070    4.5760  -11.7530 C   0  0  0  0  0  0  0  0  0  0  0  0
  2  1  2  0
  3  2  1  0
  4  3  2  0
  5  4  1  0
  6  5  1  0
  7  6  1  1
  8  7  1  0
  9  8  1  0
 10  9  1  0
 11 10  1  0
 12  7  1  0
 12 11  1  0
 13  3  1  0
 13  6  2  0
 14  2  1  0
 15 14  1  0
 16 15  1  0
 17 16  1  0
 17 18  1  1
 19 18  2  0
 20 19  1  0
 21 20  2  0
 22 21  1  0
 23 22  2  0
 23 18  1  0
 24 14  1  0
 24 17  1  0
M  END
>  <smiles>  (103) 
O=C(c1csc([C@H]2CCCNC2)n1)N1CC[C@H](c2cccnc2)C1

>  <inchikey>  (103) 
HJDDUPBBJQPCON-GJZGRUSLSA-N

>  <alias>  (103) 
Z2094a

$$$$
Z2119a
     RDKit          3D

 27 29  0  0  0  0  0  0  0  0999 V2000
   -6.7010    4.2620   -5.5150 N   0  0  0  0  0  0  0  0  0  0  0  0
   -6.0080    4.9390   -6.6190 C   0  0  0  0  0  0  0  0  0  0  0  0
   -6.6430    4.6110   -7.9490 C   0  0  0  0  0  0  0  0  0  0  0  0
   -7.5770    5.4540   -8.5320 C   0  0  0  0  0  0  0  0  0  0  0  0
   -8.1710    5.1230   -9.7380 C   0  0  0  0  0  0  0  0  0  0  0  0
   -7.9210    3.9050  -10.3480 C   0  0  0  0  0  0  0  0  0  0  0  0
   -8.5050    3.5840  -11.7000 C   0  0  0  0  0  0  0  0  0  0  0  0
   -7.4810    3.8580  -12.8140 C   0  0  2  0  0  0  0  0  0  0  0  0
   -8.0980    3.9950  -14.1130 N   0  0  0  0  0  0  0  0  0  0  0  0
   -7.4430    4.5620  -15.1320 C   0  0  0  0  0  0  0  0  0  0  0  0
   -6.3880    5.1750  -14.9730 O   0  0  0  0  0  0  0  0  0  0  0  0
   -8.0490    4.4300  -16.5010 C   0  0  0  0  0  0  0  0  0  0  0  0
   -7.2840    4.7210  -17.6250 C   0  0  0  0  0  0  0  0  0  0  0  0
   -7.8340    4.6070  -18.8890 C   0  0  0  0  0  0  0  0  0  0  0  0
   -9.1530    4.2450  -19.0470 C   0  0  0  0  0  0  0  0  0  0  0  0
   -9.9270    3.9830  -17.9400 C   0  0  0  0  0  0  0  0  0  0  0  0
   -9.3790    4.0700  -16.6740 C   0  0  0  0  0  0  0  0  0  0  0  0
   -6.4060    2.7690  -12.8360 C   0  0  0  0  0  0  0  0  0  0  0  0
   -6.6920    1.6280  -13.2170 O   0  0  0  0  0  0  0  0  0  0  0  0
   -5.1610    3.0820  -12.4210 N   0  0  0  0  0  0  0  0  0  0  0  0
   -4.6780    4.4340  -12.0780 C   0  0  0  0  0  0  0  0  0  0  0  0
   -3.1610    4.5110  -12.0000 C   0  0  0  0  0  0  0  0  0  0  0  0
   -2.5010    3.7430  -13.1390 C   0  0  0  0  0  0  0  0  0  0  0  0
   -2.9470    2.2830  -13.1700 C   0  0  0  0  0  0  0  0  0  0  0  0
   -4.1520    2.0230  -12.2790 C   0  0  0  0  0  0  0  0  0  0  0  0
   -6.9750    3.0750   -9.7710 C   0  0  0  0  0  0  0  0  0  0  0  0
   -6.3380    3.4250   -8.5940 C   0  0  0  0  0  0  0  0  0  0  0  0
  2  1  1  0
  3  2  1  0
  4  3  2  0
  5  4  1  0
  6  5  2  0
  7  6  1  0
  8  7  1  1
  9  8  1  0
 10  9  1  0
 11 10  2  0
 12 10  1  0
 13 12  2  0
 14 13  1  0
 15 14  2  0
 16 15  1  0
 17 16  2  0
 17 12  1  0
 18  8  1  0
 19 18  2  0
 20 18  1  0
 21 20  1  0
 22 21  1  0
 23 22  1  0
 24 23  1  0
 25 24  1  0
 25 20  1  0
 26  6  1  0
 27 26  2  0
 27  3  1  0
M  END
>  <smiles>  (104) 
NCc1ccc(C[C@H](NC(=O)c2ccccc2)C(=O)N2CCCCC2)cc1

>  <inchikey>  (104) 
ZEXKKFHGSAYAJI-FQEVSTJZSA-N

>  <alias>  (104) 
Z2119a

$$$$
Z2126a
     RDKit          3D

 25 26  0  0  0  0  0  0  0  0999 V2000
   -8.0460    7.0790   -9.5940 C   0  0  0  0  0  0  0  0  0  0  0  0
   -8.0470    5.7950  -10.2780 N   0  0  0  0  0  0  0  0  0  0  0  0
   -7.9210    5.6870  -11.6920 O   0  0  0  0  0  0  0  0  0  0  0  0
   -7.9690    4.3430  -11.9890 C   0  0  0  0  0  0  0  0  0  0  0  0
   -7.8490    3.9250  -13.3940 C   0  0  0  0  0  0  0  0  0  0  0  0
   -7.8750    2.7350  -13.6970 O   0  0  0  0  0  0  0  0  0  0  0  0
   -7.6970    4.9470  -14.2760 N   0  0  0  0  0  0  0  0  0  0  0  0
   -7.7230    4.8700  -15.6840 C   0  0  0  0  0  0  0  0  0  0  0  0
   -8.8210    4.3270  -16.3370 C   0  0  0  0  0  0  0  0  0  0  0  0
   -8.8080    4.2530  -17.7170 C   0  0  0  0  0  0  0  0  0  0  0  0
  -10.2090    3.6190  -18.5350 Cl  0  0  0  0  0  0  0  0  0  0  0  0
   -7.7040    4.6210  -18.4460 C   0  0  0  0  0  0  0  0  0  0  0  0
   -6.5840    5.1220  -17.7970 C   0  0  0  0  0  0  0  0  0  0  0  0
   -5.3490    5.5330  -18.5480 C   0  0  0  0  0  0  0  0  0  0  0  0
   -4.2480    5.4790  -18.0020 O   0  0  0  0  0  0  0  0  0  0  0  0
   -5.5170    5.9770  -19.7980 N   0  0  0  0  0  0  0  0  0  0  0  0
   -4.4410    6.3520  -20.7660 C   0  0  1  0  0  0  0  0  0  0  0  0
   -5.0620    7.1240  -21.9320 C   0  0  0  0  0  0  0  0  0  0  0  0
   -3.3620    7.2200  -20.1120 C   0  0  0  0  0  0  0  0  0  0  0  0
   -3.8120    5.0590  -21.2970 C   0  0  0  0  0  0  0  0  0  0  0  0
   -4.7190    4.2050  -21.9780 O   0  0  0  0  0  0  0  0  0  0  0  0
   -6.5970    5.2430  -16.4120 C   0  0  0  0  0  0  0  0  0  0  0  0
   -8.1120    3.6420  -10.8390 C   0  0  0  0  0  0  0  0  0  0  0  0
   -8.1460    4.5480   -9.7740 C   0  0  0  0  0  0  0  0  0  0  0  0
   -8.2700    4.2730   -8.5320 O   0  0  0  0  0  0  0  0  0  0  0  0
  2  1  1  0
  3  2  1  0
  4  3  1  0
  5  4  1  0
  6  5  2  0
  7  5  1  0
  8  7  1  0
  9  8  2  0
 10  9  1  0
 11 10  1  0
 12 10  2  0
 13 12  1  0
 14 13  1  0
 15 14  2  0
 16 14  1  0
 17 16  1  0
 17 18  1  6
 19 17  1  0
 20 17  1  0
 21 20  1  0
 22 13  2  0
 22  8  1  0
 23  4  2  0
 24 23  1  0
 24  2  1  0
 25 24  2  0
M  END
>  <smiles>  (105) 
Cn1oc(C(=O)Nc2cc(Cl)cc(C(=O)NC(C)(C)CO)c2)cc1=O

>  <inchikey>  (105) 
CSQNGCOGZOXVAY-UHFFFAOYSA-N

>  <alias>  (105) 
Z2126a

$$$$
Z2135a
     RDKit          3D

 22 24  0  0  0  0  0  0  0  0999 V2000
   -4.7960    4.9980  -18.0410 C   0  0  0  0  0  0  0  0  0  0  0  0
   -6.2530    4.7320  -17.9760 C   0  0  0  0  0  0  0  0  0  0  0  0
   -6.9210    4.4600  -16.8700 N   0  0  0  0  0  0  0  0  0  0  0  0
   -8.2460    4.3050  -17.2340 C   0  0  0  0  0  0  0  0  0  0  0  0
   -9.2900    3.9440  -16.2290 C   0  0  0  0  0  0  0  0  0  0  0  0
   -8.8460    4.0610  -14.8490 N   0  0  0  0  0  0  0  0  0  0  0  0
   -8.4910    5.2340  -14.3220 C   0  0  0  0  0  0  0  0  0  0  0  0
   -8.3670    6.2450  -15.0110 O   0  0  0  0  0  0  0  0  0  0  0  0
   -8.2520    5.2750  -12.8750 C   0  0  0  0  0  0  0  0  0  0  0  0
   -8.1620    4.1430  -12.0990 N   0  0  0  0  0  0  0  0  0  0  0  0
   -8.0090    4.5560  -10.8010 C   0  0  0  0  0  0  0  0  0  0  0  0
   -7.7000    3.7420   -9.5830 C   0  0  1  0  0  0  0  0  0  0  0  0
   -8.6270    4.0980   -8.3980 C   0  0  0  0  0  0  0  0  0  0  0  0
   -9.4420    2.9560   -7.7900 C   0  0  0  0  0  0  0  0  0  0  0  0
   -8.7200    1.6330   -7.8990 C   0  0  0  0  0  0  0  0  0  0  0  0
   -8.5080    1.3520   -9.3220 N   0  0  0  0  0  0  0  0  0  0  0  0
   -7.5210    2.2630   -9.9220 C   0  0  0  0  0  0  0  0  0  0  0  0
   -7.9530    5.8980  -10.7700 N   0  0  0  0  0  0  0  0  0  0  0  0
   -8.1480    6.3480  -12.0070 C   0  0  0  0  0  0  0  0  0  0  0  0
   -8.2260    7.8180  -12.2500 C   0  0  0  0  0  0  0  0  0  0  0  0
   -8.3490    4.4800  -18.5790 C   0  0  0  0  0  0  0  0  0  0  0  0
   -7.0870    4.7670  -19.0290 N   0  0  0  0  0  0  0  0  0  0  0  0
  2  1  1  0
  3  2  2  0
  4  3  1  0
  5  4  1  0
  6  5  1  0
  7  6  1  0
  8  7  2  0
  9  7  1  0
 10  9  1  0
 11 10  1  0
 12 11  1  6
 13 12  1  0
 14 13  1  0
 15 14  1  0
 16 15  1  0
 17 16  1  0
 17 12  1  0
 18 11  2  0
 19  9  2  0
 19 18  1  0
 20 19  1  0
 21  4  2  0
 22 21  1  0
 22  2  1  0
M  END
>  <smiles>  (106) 
Cc1nc(CNC(=O)c2[nH]c([C@H]3CCCNC3)nc2C)c[nH]1

>  <inchikey>  (106) 
ZVEYJTBRDUORTQ-NSHDSACASA-N

>  <alias>  (106) 
Z2135a

$$$$
Z2217a
     RDKit          3D

 24 26  0  0  0  0  0  0  0  0999 V2000
   -2.2630    6.7990  -19.9820 C   0  0  0  0  0  0  0  0  0  0  0  0
   -2.8550    5.4740  -20.4300 C   0  0  1  0  0  0  0  0  0  0  0  0
   -2.2510    4.2940  -19.6910 C   0  0  0  0  0  0  0  0  0  0  0  0
   -4.3250    5.4870  -20.3360 N   0  0  0  0  0  0  0  0  0  0  0  0
   -5.1030    5.2110  -19.2660 C   0  0  0  0  0  0  0  0  0  0  0  0
   -6.3660    4.8500  -19.3940 N   0  0  0  0  0  0  0  0  0  0  0  0
   -6.8430    4.7980  -18.0820 C   0  0  0  0  0  0  0  0  0  0  0  0
   -8.0970    4.4340  -17.5930 C   0  0  0  0  0  0  0  0  0  0  0  0
   -8.2830    4.4260  -16.2300 C   0  0  0  0  0  0  0  0  0  0  0  0
   -7.2830    4.8530  -15.3430 C   0  0  0  0  0  0  0  0  0  0  0  0
   -7.4340    4.9680  -13.8560 C   0  0  0  0  0  0  0  0  0  0  0  0
   -6.7310    5.7460  -13.2320 O   0  0  0  0  0  0  0  0  0  0  0  0
   -8.3030    4.1240  -13.2300 N   0  0  0  0  0  0  0  0  0  0  0  0
   -8.4400    4.1130  -11.8290 C   0  0  0  0  0  0  0  0  0  0  0  0
   -8.2440    5.2070  -11.0230 C   0  0  0  0  0  0  0  0  0  0  0  0
   -8.4030    4.8290   -9.7390 N   0  0  0  0  0  0  0  0  0  0  0  0
   -8.6670    3.4860   -9.6960 C   0  0  0  0  0  0  0  0  0  0  0  0
   -8.8830    2.8780   -8.3850 C   0  0  0  0  0  0  0  0  0  0  0  0
   -9.0830    1.5690   -8.3500 N   0  0  0  0  0  0  0  0  0  0  0  0
   -8.8870    3.5810   -7.3670 O   0  0  0  0  0  0  0  0  0  0  0  0
   -8.6930    3.0150  -10.9900 C   0  0  0  0  0  0  0  0  0  0  0  0
   -6.0460    5.2290  -15.8290 C   0  0  0  0  0  0  0  0  0  0  0  0
   -5.8380    5.1940  -17.1950 C   0  0  0  0  0  0  0  0  0  0  0  0
   -4.7440    5.4910  -17.9850 N   0  0  0  0  0  0  0  0  0  0  0  0
  2  1  1  1
  3  2  1  0
  4  2  1  0
  5  4  1  0
  6  5  2  0
  7  6  1  0
  8  7  1  0
  9  8  2  0
 10  9  1  0
 11 10  1  0
 12 11  2  0
 13 11  1  0
 14 13  1  0
 15 14  2  0
 16 15  1  0
 17 16  1  0
 18 17  1  0
 19 18  1  0
 20 18  2  0
 21 14  1  0
 21 17  2  0
 22 10  2  0
 23  7  2  0
 23 22  1  0
 24 23  1  0
 24  5  1  0
M  END
>  <smiles>  (107) 
CC(C)Nc1nc2ccc(C(=O)Nc3c[nH]c(C(N)=O)c3)cc2[nH]1

>  <inchikey>  (107) 
NNDZQUVYMKFTSR-UHFFFAOYSA-N

>  <alias>  (107) 
Z2217a

$$$$
Z2235a
     RDKit          3D

 22 24  0  0  0  0  0  0  0  0999 V2000
   -2.1680    4.5590  -19.5890 C   0  0  0  0  0  0  0  0  0  0  0  0
   -2.8620    5.8450  -20.0070 C   0  0  1  0  0  0  0  0  0  0  0  0
   -2.3240    6.3700  -21.3250 C   0  0  0  0  0  0  0  0  0  0  0  0
   -4.3130    5.6320  -20.1100 N   0  0  0  0  0  0  0  0  0  0  0  0
   -5.1130    5.3890  -19.0510 C   0  0  0  0  0  0  0  0  0  0  0  0
   -6.3630    4.9850  -19.1800 N   0  0  0  0  0  0  0  0  0  0  0  0
   -6.8310    4.9060  -17.8680 C   0  0  0  0  0  0  0  0  0  0  0  0
   -8.0730    4.5030  -17.3820 C   0  0  0  0  0  0  0  0  0  0  0  0
   -8.2610    4.4790  -16.0210 C   0  0  0  0  0  0  0  0  0  0  0  0
   -7.2670    4.9140  -15.1320 C   0  0  0  0  0  0  0  0  0  0  0  0
   -7.4490    4.9490  -13.6470 C   0  0  0  0  0  0  0  0  0  0  0  0
   -6.7930    5.7200  -12.9630 O   0  0  0  0  0  0  0  0  0  0  0  0
   -8.3060    4.0340  -13.1140 N   0  0  0  0  0  0  0  0  0  0  0  0
   -8.4970    3.7930  -11.7400 C   0  0  0  0  0  0  0  0  0  0  0  0
   -9.1790    2.7110  -11.1670 C   0  0  0  0  0  0  0  0  0  0  0  0
   -9.1790    2.7620   -9.8430 N   0  0  0  0  0  0  0  0  0  0  0  0
   -8.5180    3.9250   -9.5460 N   0  0  0  0  0  0  0  0  0  0  0  0
   -8.3520    4.3230   -8.1520 C   0  0  0  0  0  0  0  0  0  0  0  0
   -8.1050    4.5760  -10.6610 C   0  0  0  0  0  0  0  0  0  0  0  0
   -6.0310    5.3040  -15.6130 C   0  0  0  0  0  0  0  0  0  0  0  0
   -5.8270    5.2980  -16.9780 C   0  0  0  0  0  0  0  0  0  0  0  0
   -4.7480    5.6470  -17.7680 N   0  0  0  0  0  0  0  0  0  0  0  0
  2  1  1  6
  3  2  1  0
  4  2  1  0
  5  4  1  0
  6  5  2  0
  7  6  1  0
  8  7  1  0
  9  8  2  0
 10  9  1  0
 11 10  1  0
 12 11  2  0
 13 11  1  0
 14 13  1  0
 15 14  1  0
 16 15  2  0
 17 16  1  0
 18 17  1  0
 19 14  2  0
 19 17  1  0
 20 10  2  0
 21  7  2  0
 21 20  1  0
 22 21  1  0
 22  5  1  0
M  END
>  <smiles>  (108) 
CC(C)Nc1nc2ccc(C(=O)Nc3cnn(C)c3)cc2[nH]1

>  <inchikey>  (108) 
UAGMAIDGXYXCSZ-UHFFFAOYSA-N

>  <alias>  (108) 
Z2235a

$$$$
Z2262a
     RDKit          3D

 21 23  0  0  0  0  0  0  0  0999 V2000
   -8.5160    7.8340  -11.7740 C   0  0  0  0  0  0  0  0  0  0  0  0
   -8.3650    6.3570  -11.6400 C   0  0  0  0  0  0  0  0  0  0  0  0
   -8.3480    5.8020  -10.4290 N   0  0  0  0  0  0  0  0  0  0  0  0
   -8.2210    4.4700  -10.5820 C   0  0  0  0  0  0  0  0  0  0  0  0
   -8.1560    3.5710   -9.3860 C   0  0  1  0  0  0  0  0  0  0  0  0
   -9.5150    3.0550   -8.9530 C   0  0  0  0  0  0  0  0  0  0  0  0
   -9.4500    2.3570   -7.5930 C   0  0  0  0  0  0  0  0  0  0  0  0
   -8.1130    1.6660   -7.4050 C   0  0  0  0  0  0  0  0  0  0  0  0
   -7.4910    1.2690   -8.6810 N   0  0  0  0  0  0  0  0  0  0  0  0
   -7.1780    2.4170   -9.5630 C   0  0  0  0  0  0  0  0  0  0  0  0
   -8.1600    4.1740  -11.9260 N   0  0  0  0  0  0  0  0  0  0  0  0
   -8.2260    5.3720  -12.6010 C   0  0  0  0  0  0  0  0  0  0  0  0
   -8.2090    5.5130  -14.0620 C   0  0  0  0  0  0  0  0  0  0  0  0
   -7.7160    6.5090  -14.5750 O   0  0  0  0  0  0  0  0  0  0  0  0
   -8.8390    4.5420  -14.7680 N   0  0  0  0  0  0  0  0  0  0  0  0
   -8.9440    4.4560  -16.1650 C   0  0  0  0  0  0  0  0  0  0  0  0
  -10.0090    3.8260  -16.8050 C   0  0  0  0  0  0  0  0  0  0  0  0
  -10.0290    3.8070  -18.1790 C   0  0  0  0  0  0  0  0  0  0  0  0
   -8.9760    4.3410  -18.8830 C   0  0  0  0  0  0  0  0  0  0  0  0
   -7.9580    4.9260  -18.1790 C   0  0  0  0  0  0  0  0  0  0  0  0
   -7.9130    4.9810  -16.8380 N   0  0  0  0  0  0  0  0  0  0  0  0
  2  1  1  0
  3  2  1  0
  4  3  2  0
  5  4  1  6
  6  5  1  0
  7  6  1  0
  8  7  1  0
  9  8  1  0
 10  9  1  0
 10  5  1  0
 11  4  1  0
 12 11  1  0
 12  2  2  0
 13 12  1  0
 14 13  2  0
 15 13  1  0
 16 15  1  0
 17 16  2  0
 18 17  1  0
 19 18  2  0
 20 19  1  0
 21 20  2  0
 21 16  1  0
M  END
>  <smiles>  (109) 
Cc1nc([C@H]2CCCNC2)[nH]c1C(=O)Nc1ccccn1

>  <inchikey>  (109) 
XCVYJDDLPGWFGF-NSHDSACASA-N

>  <alias>  (109) 
Z2262a

$$$$
Z2439a
     RDKit          3D

 23 25  0  0  0  0  0  0  0  0999 V2000
   -9.1460    4.1670  -16.4980 C   0  0  0  0  0  0  0  0  0  0  0  0
   -7.9490    4.4600  -17.3590 C   0  0  0  0  0  0  0  0  0  0  0  0
   -8.0030    4.2510  -18.7220 C   0  0  0  0  0  0  0  0  0  0  0  0
   -6.9610    4.4690  -19.5390 N   0  0  0  0  0  0  0  0  0  0  0  0
   -5.8270    4.8980  -18.9820 C   0  0  0  0  0  0  0  0  0  0  0  0
   -5.6700    5.1180  -17.6400 C   0  0  0  0  0  0  0  0  0  0  0  0
   -6.7520    4.9010  -16.7990 C   0  0  0  0  0  0  0  0  0  0  0  0
   -6.6830    5.0750  -15.3870 N   0  0  0  0  0  0  0  0  0  0  0  0
   -5.6110    5.3130  -14.5940 C   0  0  0  0  0  0  0  0  0  0  0  0
   -4.4560    5.3310  -15.0090 O   0  0  0  0  0  0  0  0  0  0  0  0
   -5.9050    5.5570  -13.1440 C   0  0  0  0  0  0  0  0  0  0  0  0
   -5.0100    6.3200  -12.3840 C   0  0  0  0  0  0  0  0  0  0  0  0
   -5.2430    6.5590  -11.0230 C   0  0  0  0  0  0  0  0  0  0  0  0
   -6.3180    6.0130  -10.4230 C   0  0  0  0  0  0  0  0  0  0  0  0
   -7.1960    5.2200  -11.1090 N   0  0  0  0  0  0  0  0  0  0  0  0
   -8.3610    4.6560  -10.3910 C   0  0  0  0  0  0  0  0  0  0  0  0
   -7.9030    3.8320   -9.1830 C   0  0  2  0  0  0  0  0  0  0  0  0
   -7.6030    2.3570   -9.4930 C   0  0  0  0  0  0  0  0  0  0  0  0
   -8.2430    1.6220   -8.3460 C   0  0  0  0  0  0  0  0  0  0  0  0
   -9.4210    2.4270   -8.0390 N   0  0  0  0  0  0  0  0  0  0  0  0
   -8.8670    3.7840   -7.9950 C   0  0  0  0  0  0  0  0  0  0  0  0
   -7.0460    4.9580  -12.4820 C   0  0  0  0  0  0  0  0  0  0  0  0
   -7.8740    4.2240  -13.0380 O   0  0  0  0  0  0  0  0  0  0  0  0
  2  1  1  0
  3  2  2  0
  4  3  1  0
  5  4  2  0
  6  5  1  0
  7  6  2  0
  7  2  1  0
  8  7  1  0
  9  8  1  0
 10  9  2  0
 11  9  1  0
 12 11  2  0
 13 12  1  0
 14 13  2  0
 15 14  1  0
 16 15  1  0
 17 16  1  6
 18 17  1  0
 19 18  1  0
 20 19  1  0
 21 20  1  0
 21 17  1  0
 22 15  1  0
 22 11  1  0
 23 22  2  0
M  END
>  <smiles>  (110) 
Cc1cnccc1NC(=O)c1cccn(C[C@@H]2CCNC2)c1=O

>  <inchikey>  (110) 
BAEXPXCEECSBTP-CYBMUJFWSA-N

>  <alias>  (110) 
Z2439a

$$$$
Z2500a
     RDKit          3D

 27 30  0  0  0  0  0  0  0  0999 V2000
   -2.6930    4.1410  -14.2600 C   0  0  0  0  0  0  0  0  0  0  0  0
   -3.9230    4.0010  -13.5260 O   0  0  0  0  0  0  0  0  0  0  0  0
   -5.0790    4.4100  -14.0880 C   0  0  0  0  0  0  0  0  0  0  0  0
   -6.1930    4.3940  -13.2780 C   0  0  0  0  0  0  0  0  0  0  0  0
   -7.4070    4.7770  -13.8230 C   0  0  0  0  0  0  0  0  0  0  0  0
   -8.6650    4.8620  -12.9950 C   0  0  0  0  0  0  0  0  0  0  0  0
   -8.2970    5.2480  -11.5790 C   0  0  0  0  0  0  0  0  0  0  0  0
   -7.7610    6.4940  -11.2970 C   0  0  0  0  0  0  0  0  0  0  0  0
   -7.4170    6.7960   -9.9990 C   0  0  0  0  0  0  0  0  0  0  0  0
   -7.5800    5.9360   -8.9800 N   0  0  0  0  0  0  0  0  0  0  0  0
   -8.0950    4.7170   -9.2370 C   0  0  0  0  0  0  0  0  0  0  0  0
   -8.3420    3.9040   -8.1620 N   0  0  0  0  0  0  0  0  0  0  0  0
   -9.1820    2.7120   -8.2710 C   0  0  0  0  0  0  0  0  0  0  0  0
   -8.5420    1.5000   -7.6220 C   0  0  0  0  0  0  0  0  0  0  0  0
   -7.7480    1.8260   -6.4320 N   0  0  0  0  0  0  0  0  0  0  0  0
   -8.1640    3.0910   -5.8310 C   0  0  0  0  0  0  0  0  0  0  0  0
   -7.9010    4.2270   -6.8000 C   0  0  0  0  0  0  0  0  0  0  0  0
   -8.4730    4.3530  -10.5390 C   0  0  0  0  0  0  0  0  0  0  0  0
   -7.5010    5.1200  -15.1110 N   0  0  0  0  0  0  0  0  0  0  0  0
   -6.3720    5.1150  -15.8510 C   0  0  0  0  0  0  0  0  0  0  0  0
   -6.4710    5.4250  -17.1580 N   0  0  0  0  0  0  0  0  0  0  0  0
   -7.7040    5.2200  -17.9180 C   0  0  0  0  0  0  0  0  0  0  0  0
   -7.4230    4.4310  -19.1830 C   0  0  0  0  0  0  0  0  0  0  0  0
   -6.2590    4.9310  -19.9290 N   0  0  0  0  0  0  0  0  0  0  0  0
   -5.7110    6.1750  -19.3820 C   0  0  0  0  0  0  0  0  0  0  0  0
   -5.3690    6.0260  -17.9110 C   0  0  0  0  0  0  0  0  0  0  0  0
   -5.1680    4.7230  -15.3800 N   0  0  0  0  0  0  0  0  0  0  0  0
  2  1  1  0
  3  2  1  0
  4  3  2  0
  5  4  1  0
  6  5  1  0
  7  6  1  0
  8  7  2  0
  9  8  1  0
 10  9  2  0
 11 10  1  0
 12 11  1  0
 13 12  1  0
 14 13  1  0
 15 14  1  0
 16 15  1  0
 17 16  1  0
 17 12  1  0
 18  7  1  0
 18 11  2  0
 19  5  2  0
 20 19  1  0
 21 20  1  0
 22 21  1  0
 23 22  1  0
 24 23  1  0
 25 24  1  0
 26 21  1  0
 26 25  1  0
 27 20  2  0
 27  3  1  0
M  END
>  <smiles>  (111) 
COc1cc(Cc2ccnc(N3CCNCC3)c2)nc(N2CCNCC2)n1

>  <inchikey>  (111) 
JUPFIHBGLOTCIX-UHFFFAOYSA-N

>  <alias>  (111) 
Z2500a

$$$$
Z2992a
     RDKit          3D

 29 31  0  0  0  0  0  0  0  0999 V2000
   -3.8120    5.2690  -17.6420 O   0  0  0  0  0  0  0  0  0  0  0  0
   -4.3500    5.1390  -18.7230 C   0  0  0  0  0  0  0  0  0  0  0  0
   -3.7070    5.2170  -19.9080 O   0  0  0  0  0  0  0  0  0  0  0  0
   -2.2860    5.5260  -19.8460 C   0  0  0  0  0  0  0  0  0  0  0  0
   -2.1210    6.9910  -20.1320 C   0  0  0  0  0  0  0  0  0  0  0  0
   -2.1780    7.9250  -19.1070 C   0  0  0  0  0  0  0  0  0  0  0  0
   -2.0920    9.2800  -19.3800 C   0  0  0  0  0  0  0  0  0  0  0  0
   -1.9360    9.7170  -20.6760 C   0  0  0  0  0  0  0  0  0  0  0  0
   -1.8680    8.8020  -21.7020 C   0  0  0  0  0  0  0  0  0  0  0  0
   -1.9600    7.4460  -21.4330 C   0  0  0  0  0  0  0  0  0  0  0  0
   -5.6740    4.9390  -18.9530 N   0  0  0  0  0  0  0  0  0  0  0  0
   -6.6990    4.7700  -17.9910 C   0  0  0  0  0  0  0  0  0  0  0  0
   -7.9450    4.4300  -18.5040 C   0  0  0  0  0  0  0  0  0  0  0  0
   -8.9910    4.2250  -17.6300 C   0  0  0  0  0  0  0  0  0  0  0  0
  -10.5830    3.9570  -18.2810 Cl  0  0  0  0  0  0  0  0  0  0  0  0
   -8.8290    4.3090  -16.2600 C   0  0  0  0  0  0  0  0  0  0  0  0
   -6.5240    4.8960  -16.6160 C   0  0  0  0  0  0  0  0  0  0  0  0
   -7.5870    4.6660  -15.7450 C   0  0  0  0  0  0  0  0  0  0  0  0
   -7.3390    4.8870  -14.2850 C   0  0  0  0  0  0  0  0  0  0  0  0
   -6.3350    5.4820  -13.9040 O   0  0  0  0  0  0  0  0  0  0  0  0
   -8.2910    4.4220  -13.4340 N   0  0  0  0  0  0  0  0  0  0  0  0
   -8.3430    4.5970  -12.0220 C   0  0  0  0  0  0  0  0  0  0  0  0
   -8.0810    5.8500  -11.4830 C   0  0  0  0  0  0  0  0  0  0  0  0
   -8.1520    6.0370  -10.1150 C   0  0  0  0  0  0  0  0  0  0  0  0
   -8.5040    4.9890   -9.2820 C   0  0  0  0  0  0  0  0  0  0  0  0
   -8.6930    3.5450  -11.1760 C   0  0  0  0  0  0  0  0  0  0  0  0
   -8.8010    3.7380   -9.8010 C   0  0  0  0  0  0  0  0  0  0  0  0
   -9.3570    2.6490   -8.9000 C   0  0  0  0  0  0  0  0  0  0  0  0
   -8.3160    1.7870   -8.3570 N   0  0  0  0  0  0  0  0  0  0  0  0
  2  1  2  0
  3  2  1  0
  4  3  1  0
  5  4  1  0
  6  5  2  0
  7  6  1  0
  8  7  2  0
  9  8  1  0
 10  9  2  0
 10  5  1  0
 11  2  1  0
 12 11  1  0
 13 12  2  0
 14 13  1  0
 15 14  1  0
 16 14  2  0
 17 12  1  0
 18 17  2  0
 18 16  1  0
 19 18  1  0
 20 19  2  0
 21 19  1  0
 22 21  1  0
 23 22  2  0
 24 23  1  0
 25 24  2  0
 26 22  1  0
 27 26  2  0
 27 25  1  0
 28 27  1  0
 29 28  1  0
M  END
>  <smiles>  (112) 
NCc1cccc(NC(=O)c2cc(Cl)cc(NC(=O)OCc3ccccc3)c2)c1

>  <inchikey>  (112) 
PEGKGNYEDPNPGK-UHFFFAOYSA-N

>  <alias>  (112) 
Z2992a

$$$$
Z3021a
     RDKit          3D

 30 32  0  0  0  0  0  0  0  0999 V2000
   -5.7940    4.8500  -20.8760 O   0  0  0  0  0  0  0  0  0  0  0  0
   -5.3290    5.2840  -19.8390 C   0  0  0  0  0  0  0  0  0  0  0  0
   -4.4920    6.3440  -19.7560 O   0  0  0  0  0  0  0  0  0  0  0  0
   -4.1090    6.9850  -21.0110 C   0  0  0  0  0  0  0  0  0  0  0  0
   -3.0670    8.0310  -20.7240 C   0  0  0  0  0  0  0  0  0  0  0  0
   -2.7730    9.0200  -21.6530 C   0  0  0  0  0  0  0  0  0  0  0  0
   -1.8190    9.9890  -21.3780 C   0  0  0  0  0  0  0  0  0  0  0  0
   -1.1470    9.9780  -20.1740 C   0  0  0  0  0  0  0  0  0  0  0  0
   -1.4250    8.9980  -19.2460 C   0  0  0  0  0  0  0  0  0  0  0  0
   -2.3790    8.0300  -19.5170 C   0  0  0  0  0  0  0  0  0  0  0  0
   -5.4930    4.7560  -18.6000 N   0  0  0  0  0  0  0  0  0  0  0  0
   -6.6720    4.7610  -17.8180 C   0  0  0  0  0  0  0  0  0  0  0  0
   -7.9040    4.5100  -18.4090 C   0  0  0  0  0  0  0  0  0  0  0  0
   -9.0120    4.3600  -17.6010 C   0  0  0  0  0  0  0  0  0  0  0  0
  -10.5640    4.1050  -18.3440 Cl  0  0  0  0  0  0  0  0  0  0  0  0
   -8.9330    4.4540  -16.2240 C   0  0  0  0  0  0  0  0  0  0  0  0
   -6.5810    4.8990  -16.4370 C   0  0  0  0  0  0  0  0  0  0  0  0
   -7.7100    4.7520  -15.6360 C   0  0  0  0  0  0  0  0  0  0  0  0
   -7.5400    5.0560  -14.1820 C   0  0  0  0  0  0  0  0  0  0  0  0
   -6.6160    5.7640  -13.7980 O   0  0  0  0  0  0  0  0  0  0  0  0
   -8.4480    4.5040  -13.3360 N   0  0  0  0  0  0  0  0  0  0  0  0
   -8.4810    4.6380  -11.9180 C   0  0  0  0  0  0  0  0  0  0  0  0
   -8.2460    5.8820  -11.3470 C   0  0  0  0  0  0  0  0  0  0  0  0
   -8.2760    6.0230   -9.9680 C   0  0  0  0  0  0  0  0  0  0  0  0
   -8.5710    4.9350   -9.1610 C   0  0  0  0  0  0  0  0  0  0  0  0
   -8.7620    3.5480  -11.0980 C   0  0  0  0  0  0  0  0  0  0  0  0
   -8.8490    3.6940   -9.7150 C   0  0  0  0  0  0  0  0  0  0  0  0
   -9.4130    2.5800   -8.8630 C   0  0  0  0  0  0  0  0  0  0  0  0
   -8.4910    2.1660   -7.7420 C   0  0  0  0  0  0  0  0  0  0  0  0
   -7.2270    1.7480   -8.3520 N   0  0  0  0  0  0  0  0  0  0  0  0
  2  1  2  0
  3  2  1  0
  4  3  1  0
  5  4  1  0
  6  5  2  0
  7  6  1  0
  8  7  2  0
  9  8  1  0
 10  9  2  0
 10  5  1  0
 11  2  1  0
 12 11  1  0
 13 12  2  0
 14 13  1  0
 15 14  1  0
 16 14  2  0
 17 12  1  0
 18 17  2  0
 18 16  1  0
 19 18  1  0
 20 19  2  0
 21 19  1  0
 22 21  1  0
 23 22  2  0
 24 23  1  0
 25 24  2  0
 26 22  1  0
 27 26  2  0
 27 25  1  0
 28 27  1  0
 29 28  1  0
 30 29  1  0
M  END
>  <smiles>  (113) 
NCCc1cccc(NC(=O)c2cc(Cl)cc(NC(=O)OCc3ccccc3)c2)c1

>  <inchikey>  (113) 
SZPWXNMMDXBSSA-UHFFFAOYSA-N

>  <alias>  (113) 
Z3021a

$$$$
Z3024a
     RDKit          3D

 30 32  0  0  0  0  0  0  0  0999 V2000
   -3.7840    4.8930  -17.0010 O   0  0  0  0  0  0  0  0  0  0  0  0
   -4.1530    4.8300  -18.1580 C   0  0  0  0  0  0  0  0  0  0  0  0
   -3.3250    4.8510  -19.2220 O   0  0  0  0  0  0  0  0  0  0  0  0
   -1.9270    5.1310  -18.9490 C   0  0  0  0  0  0  0  0  0  0  0  0
   -1.7670    6.5920  -19.2430 C   0  0  0  0  0  0  0  0  0  0  0  0
   -2.8010    7.4710  -18.9660 C   0  0  0  0  0  0  0  0  0  0  0  0
   -2.7480    8.7860  -19.3940 C   0  0  0  0  0  0  0  0  0  0  0  0
   -1.6580    9.2380  -20.0940 C   0  0  0  0  0  0  0  0  0  0  0  0
   -0.6100    8.3850  -20.3470 C   0  0  0  0  0  0  0  0  0  0  0  0
   -0.6580    7.0710  -19.9200 C   0  0  0  0  0  0  0  0  0  0  0  0
   -5.4350    4.8850  -18.6030 N   0  0  0  0  0  0  0  0  0  0  0  0
   -6.6110    4.8510  -17.8220 C   0  0  0  0  0  0  0  0  0  0  0  0
   -7.7950    4.4580  -18.4370 C   0  0  0  0  0  0  0  0  0  0  0  0
   -8.9150    4.2610  -17.6570 C   0  0  0  0  0  0  0  0  0  0  0  0
  -10.3980    3.7730  -18.4250 Cl  0  0  0  0  0  0  0  0  0  0  0  0
   -8.8950    4.4400  -16.2880 C   0  0  0  0  0  0  0  0  0  0  0  0
   -6.5820    5.0740  -16.4520 C   0  0  0  0  0  0  0  0  0  0  0  0
   -7.7160    4.8550  -15.6790 C   0  0  0  0  0  0  0  0  0  0  0  0
   -7.5960    5.0560  -14.2040 C   0  0  0  0  0  0  0  0  0  0  0  0
   -6.7950    5.8660  -13.7420 O   0  0  0  0  0  0  0  0  0  0  0  0
   -8.3860    4.2720  -13.4340 N   0  0  0  0  0  0  0  0  0  0  0  0
   -8.4240    4.2390  -12.0200 C   0  0  0  0  0  0  0  0  0  0  0  0
   -8.3030    5.4040  -11.2710 C   0  0  0  0  0  0  0  0  0  0  0  0
   -8.3040    5.3470   -9.8910 C   0  0  0  0  0  0  0  0  0  0  0  0
   -8.5570    3.0260  -11.3600 C   0  0  0  0  0  0  0  0  0  0  0  0
   -8.5560    2.9830   -9.9780 C   0  0  0  0  0  0  0  0  0  0  0  0
   -8.4310    4.1400   -9.2220 C   0  0  0  0  0  0  0  0  0  0  0  0
   -8.4260    4.0920   -7.7120 C   0  0  0  0  0  0  0  0  0  0  0  0
   -8.7150    2.6900   -7.1330 C   0  0  0  0  0  0  0  0  0  0  0  0
   -8.3300    2.6180   -5.7240 N   0  0  0  0  0  0  0  0  0  0  0  0
  2  1  2  0
  3  2  1  0
  4  3  1  0
  5  4  1  0
  6  5  2  0
  7  6  1  0
  8  7  2  0
  9  8  1  0
 10  9  2  0
 10  5  1  0
 11  2  1  0
 12 11  1  0
 13 12  2  0
 14 13  1  0
 15 14  1  0
 16 14  2  0
 17 12  1  0
 18 17  2  0
 18 16  1  0
 19 18  1  0
 20 19  2  0
 21 19  1  0
 22 21  1  0
 23 22  2  0
 24 23  1  0
 25 22  1  0
 26 25  2  0
 27 26  1  0
 27 24  2  0
 28 27  1  0
 29 28  1  0
 30 29  1  0
M  END
>  <smiles>  (114) 
NCCc1ccc(NC(=O)c2cc(Cl)cc(NC(=O)OCc3ccccc3)c2)cc1

>  <inchikey>  (114) 
QDSOVDRCRGAQAG-UHFFFAOYSA-N

>  <alias>  (114) 
Z3024a

$$$$
Z3028a
     RDKit          3D

 30 32  0  0  0  0  0  0  0  0999 V2000
   -3.5440    5.2080  -16.7820 O   0  0  0  0  0  0  0  0  0  0  0  0
   -4.0110    5.4670  -17.8720 C   0  0  0  0  0  0  0  0  0  0  0  0
   -3.2850    5.6840  -18.9850 O   0  0  0  0  0  0  0  0  0  0  0  0
   -1.8440    5.6240  -18.8600 C   0  0  0  0  0  0  0  0  0  0  0  0
   -1.3220    5.7140  -20.2620 C   0  0  0  0  0  0  0  0  0  0  0  0
   -0.0800    6.2690  -20.5370 C   0  0  0  0  0  0  0  0  0  0  0  0
    0.3980    6.3220  -21.8370 C   0  0  0  0  0  0  0  0  0  0  0  0
   -0.3590    5.8270  -22.8770 C   0  0  0  0  0  0  0  0  0  0  0  0
   -1.5990    5.2850  -22.6200 C   0  0  0  0  0  0  0  0  0  0  0  0
   -2.0780    5.2290  -21.3210 C   0  0  0  0  0  0  0  0  0  0  0  0
   -5.3220    5.6260  -18.1760 N   0  0  0  0  0  0  0  0  0  0  0  0
   -6.4300    5.1660  -17.4340 C   0  0  0  0  0  0  0  0  0  0  0  0
   -7.5360    4.7000  -18.1370 C   0  0  0  0  0  0  0  0  0  0  0  0
   -8.6810    4.3800  -17.4380 C   0  0  0  0  0  0  0  0  0  0  0  0
  -10.1090    3.9310  -18.3270 Cl  0  0  0  0  0  0  0  0  0  0  0  0
   -8.7470    4.4710  -16.0600 C   0  0  0  0  0  0  0  0  0  0  0  0
   -6.4780    5.2670  -16.0490 C   0  0  0  0  0  0  0  0  0  0  0  0
   -7.6340    4.9230  -15.3570 C   0  0  0  0  0  0  0  0  0  0  0  0
   -7.6140    5.0870  -13.8700 C   0  0  0  0  0  0  0  0  0  0  0  0
   -6.9380    5.9670  -13.3430 O   0  0  0  0  0  0  0  0  0  0  0  0
   -8.3200    4.1710  -13.1650 N   0  0  0  0  0  0  0  0  0  0  0  0
   -8.3570    4.0130  -11.7580 C   0  0  0  0  0  0  0  0  0  0  0  0
   -8.5080    5.0780  -10.8770 C   0  0  0  0  0  0  0  0  0  0  0  0
   -8.5570    4.8520   -9.5120 C   0  0  0  0  0  0  0  0  0  0  0  0
   -8.2530    2.7270  -11.2460 C   0  0  0  0  0  0  0  0  0  0  0  0
   -8.3090    2.5130   -9.8820 C   0  0  0  0  0  0  0  0  0  0  0  0
   -8.4650    3.5670   -8.9960 C   0  0  0  0  0  0  0  0  0  0  0  0
   -8.5160    3.3190   -7.4970 C   0  0  2  0  0  0  0  0  0  0  0  0
   -9.3400    2.1200   -7.2640 N   0  0  0  0  0  0  0  0  0  0  0  0
   -8.9960    4.5010   -6.6620 C   0  0  0  0  0  0  0  0  0  0  0  0
  2  1  2  0
  3  2  1  0
  4  3  1  0
  5  4  1  0
  6  5  2  0
  7  6  1  0
  8  7  2  0
  9  8  1  0
 10  9  2  0
 10  5  1  0
 11  2  1  0
 12 11  1  0
 13 12  2  0
 14 13  1  0
 15 14  1  0
 16 14  2  0
 17 12  1  0
 18 17  2  0
 18 16  1  0
 19 18  1  0
 20 19  2  0
 21 19  1  0
 22 21  1  0
 23 22  2  0
 24 23  1  0
 25 22  1  0
 26 25  2  0
 27 26  1  0
 27 24  2  0
 28 27  1  0
 29 28  1  0
 28 30  1  1
M  END
>  <smiles>  (115) 
C[C@@H](N)c1ccc(NC(=O)c2cc(Cl)cc(NC(=O)OCc3ccccc3)c2)cc1

>  <inchikey>  (115) 
APASUVIWXFRLJS-OAHLLOKOSA-N

>  <alias>  (115) 
Z3028a

$$$$
Z3059a
     RDKit          3D

 30 33  0  0  0  0  0  0  0  0999 V2000
   -6.5040    5.3570  -13.0810 O   0  0  0  0  0  0  0  0  0  0  0  0
   -7.4210    4.7230  -13.6000 C   0  0  0  0  0  0  0  0  0  0  0  0
   -8.3740    4.0780  -12.8780 N   0  0  0  0  0  0  0  0  0  0  0  0
   -8.4760    4.0460  -11.4590 C   0  0  0  0  0  0  0  0  0  0  0  0
   -8.7070    2.8510  -10.7790 C   0  0  0  0  0  0  0  0  0  0  0  0
   -8.7830    2.8390   -9.3880 C   0  0  0  0  0  0  0  0  0  0  0  0
   -9.0960    1.7030   -8.4610 C   0  0  0  0  0  0  0  0  0  0  0  0
   -8.8340    2.2960   -7.1570 N   0  0  0  0  0  0  0  0  0  0  0  0
   -8.6910    3.7530   -7.1970 C   0  0  0  0  0  0  0  0  0  0  0  0
   -8.6000    4.0140   -8.6710 C   0  0  0  0  0  0  0  0  0  0  0  0
   -8.3700    5.2050   -9.3500 C   0  0  0  0  0  0  0  0  0  0  0  0
   -8.3150    5.2250  -10.7340 C   0  0  0  0  0  0  0  0  0  0  0  0
   -7.5070    4.5960  -15.0890 C   0  0  0  0  0  0  0  0  0  0  0  0
   -8.6390    4.2220  -15.8070 C   0  0  0  0  0  0  0  0  0  0  0  0
   -8.5760    4.1840  -17.1890 C   0  0  0  0  0  0  0  0  0  0  0  0
  -10.0220    3.8260  -18.0910 Cl  0  0  0  0  0  0  0  0  0  0  0  0
   -7.4140    4.4740  -17.8790 C   0  0  0  0  0  0  0  0  0  0  0  0
   -6.3370    4.9120  -15.7700 C   0  0  0  0  0  0  0  0  0  0  0  0
   -6.2810    4.8370  -17.1590 C   0  0  0  0  0  0  0  0  0  0  0  0
   -5.0800    5.0700  -17.8700 N   0  0  0  0  0  0  0  0  0  0  0  0
   -3.8260    5.1920  -17.3590 C   0  0  0  0  0  0  0  0  0  0  0  0
   -3.5170    5.2070  -16.1840 O   0  0  0  0  0  0  0  0  0  0  0  0
   -2.9580    5.3890  -18.3730 O   0  0  0  0  0  0  0  0  0  0  0  0
   -1.5940    5.7430  -18.0010 C   0  0  0  0  0  0  0  0  0  0  0  0
   -1.3720    7.1560  -18.4590 C   0  0  0  0  0  0  0  0  0  0  0  0
   -0.3780    7.4590  -19.3790 C   0  0  0  0  0  0  0  0  0  0  0  0
   -0.3210    8.7110  -19.9680 C   0  0  0  0  0  0  0  0  0  0  0  0
   -1.2470    9.6750  -19.6390 C   0  0  0  0  0  0  0  0  0  0  0  0
   -2.2090    9.4030  -18.6910 C   0  0  0  0  0  0  0  0  0  0  0  0
   -2.2680    8.1530  -18.0990 C   0  0  0  0  0  0  0  0  0  0  0  0
  2  1  2  0
  3  2  1  0
  4  3  1  0
  5  4  2  0
  6  5  1  0
  7  6  1  0
  8  7  1  0
  9  8  1  0
 10  9  1  0
 10  6  2  0
 11 10  1  0
 12  4  1  0
 12 11  2  0
 13  2  1  0
 14 13  2  0
 15 14  1  0
 16 15  1  0
 17 15  2  0
 18 13  1  0
 19 17  1  0
 19 18  2  0
 20 19  1  0
 21 20  1  0
 22 21  2  0
 23 21  1  0
 24 23  1  0
 25 24  1  0
 26 25  2  0
 27 26  1  0
 28 27  2  0
 29 28  1  0
 30 29  2  0
 30 25  1  0
M  END
>  <smiles>  (116) 
O=C(Nc1cc(Cl)cc(C(=O)Nc2ccc3c(c2)CNC3)c1)OCc1ccccc1

>  <inchikey>  (116) 
KFKAFUTTZFLTOK-UHFFFAOYSA-N

>  <alias>  (116) 
Z3059a

$$$$
Z3060a
     RDKit          3D

 20 21  0  0  0  0  0  0  0  0999 V2000
  -10.8550    4.1170  -18.2370 Cl  0  0  0  0  0  0  0  0  0  0  0  0
   -9.2870    4.3680  -17.5220 C   0  0  0  0  0  0  0  0  0  0  0  0
   -9.1790    4.4590  -16.1490 C   0  0  0  0  0  0  0  0  0  0  0  0
   -8.1900    4.4910  -18.3470 C   0  0  0  0  0  0  0  0  0  0  0  0
   -6.9390    4.7310  -17.7940 C   0  0  0  0  0  0  0  0  0  0  0  0
   -5.7410    4.9500  -18.6770 C   0  0  0  0  0  0  0  0  0  0  0  0
   -6.1100    5.7730  -19.8280 N   0  0  0  0  0  0  0  0  0  0  0  0
   -6.8150    4.8170  -16.4110 C   0  0  0  0  0  0  0  0  0  0  0  0
   -7.9300    4.6920  -15.5860 C   0  0  0  0  0  0  0  0  0  0  0  0
   -7.7010    4.9370  -14.1280 C   0  0  0  0  0  0  0  0  0  0  0  0
   -6.7800    5.6610  -13.7540 O   0  0  0  0  0  0  0  0  0  0  0  0
   -8.5640    4.3380  -13.2680 N   0  0  0  0  0  0  0  0  0  0  0  0
   -8.5780    4.4650  -11.8460 C   0  0  0  0  0  0  0  0  0  0  0  0
   -8.2920    5.6920  -11.2550 C   0  0  0  0  0  0  0  0  0  0  0  0
   -8.3270    5.8170   -9.8760 C   0  0  0  0  0  0  0  0  0  0  0  0
   -8.6580    4.7310   -9.0830 C   0  0  0  0  0  0  0  0  0  0  0  0
   -8.8930    3.3750  -11.0380 C   0  0  0  0  0  0  0  0  0  0  0  0
   -8.9500    3.5010   -9.6540 C   0  0  0  0  0  0  0  0  0  0  0  0
   -9.3740    2.3580   -8.8050 C   0  0  0  0  0  0  0  0  0  0  0  0
   -8.2310    1.8380   -8.0650 N   0  0  0  0  0  0  0  0  0  0  0  0
  2  1  1  0
  3  2  2  0
  4  2  1  0
  5  4  2  0
  6  5  1  0
  7  6  1  0
  8  5  1  0
  9  8  2  0
  9  3  1  0
 10  9  1  0
 11 10  2  0
 12 10  1  0
 13 12  1  0
 14 13  2  0
 15 14  1  0
 16 15  2  0
 17 13  1  0
 18 17  2  0
 18 16  1  0
 19 18  1  0
 20 19  1  0
M  END
>  <smiles>  (117) 
NCc1cccc(NC(=O)c2cc(Cl)cc(CN)c2)c1

>  <inchikey>  (117) 
BAOPFONCQOHBOZ-UHFFFAOYSA-N

>  <alias>  (117) 
Z3060a

$$$$
Z3093a
     RDKit          3D

 26 29  0  0  0  0  0  0  0  0999 V2000
   -6.7170    5.7290  -13.8950 O   0  0  0  0  0  0  0  0  0  0  0  0
   -7.6080    4.9390  -14.2050 C   0  0  0  0  0  0  0  0  0  0  0  0
   -8.4010    4.2970  -13.2840 N   0  0  0  0  0  0  0  0  0  0  0  0
   -8.4090    4.4500  -11.8670 C   0  0  0  0  0  0  0  0  0  0  0  0
   -8.0650    5.6680  -11.2910 C   0  0  0  0  0  0  0  0  0  0  0  0
   -8.1020    5.8130   -9.9140 C   0  0  0  0  0  0  0  0  0  0  0  0
   -8.4920    4.7560   -9.1090 C   0  0  0  0  0  0  0  0  0  0  0  0
   -8.7970    3.3920  -11.0490 C   0  0  0  0  0  0  0  0  0  0  0  0
   -8.8630    3.5410   -9.6660 C   0  0  0  0  0  0  0  0  0  0  0  0
   -9.4240    2.4270   -8.7850 C   0  0  0  0  0  0  0  0  0  0  0  0
   -8.3390    1.5850   -8.3060 N   0  0  0  0  0  0  0  0  0  0  0  0
   -7.9180    4.6600  -15.6650 C   0  0  0  0  0  0  0  0  0  0  0  0
   -6.9790    4.8520  -16.7300 C   0  0  0  0  0  0  0  0  0  0  0  0
   -7.3770    4.5590  -18.0260 N   0  0  0  0  0  0  0  0  0  0  0  0
   -8.6470    4.1040  -18.3320 C   0  0  0  0  0  0  0  0  0  0  0  0
   -9.5410    3.9410  -17.3390 C   0  0  0  0  0  0  0  0  0  0  0  0
   -9.1790    4.2130  -15.9970 C   0  0  0  0  0  0  0  0  0  0  0  0
   -5.7270    5.2690  -16.7000 N   0  0  0  0  0  0  0  0  0  0  0  0
   -5.3010    5.2520  -18.0180 C   0  0  0  0  0  0  0  0  0  0  0  0
   -6.2960    4.8110  -18.8410 C   0  0  0  0  0  0  0  0  0  0  0  0
   -3.9200    5.7260  -18.3570 C   0  0  0  0  0  0  0  0  0  0  0  0
   -3.4780    6.8720  -17.5610 N   0  0  0  0  0  0  0  0  0  0  0  0
   -4.3810    8.0260  -17.6590 C   0  0  0  0  0  0  0  0  0  0  0  0
   -3.5780    9.1650  -17.0680 C   0  0  0  0  0  0  0  0  0  0  0  0
   -2.1250    8.7950  -17.3690 C   0  0  0  0  0  0  0  0  0  0  0  0
   -2.1770    7.4010  -17.9880 C   0  0  0  0  0  0  0  0  0  0  0  0
  2  1  2  0
  3  2  1  0
  4  3  1  0
  5  4  2  0
  6  5  1  0
  7  6  2  0
  8  4  1  0
  9  8  2  0
  9  7  1  0
 10  9  1  0
 11 10  1  0
 12  2  1  0
 13 12  1  0
 14 13  1  0
 15 14  1  0
 16 15  2  0
 17 16  1  0
 17 12  2  0
 18 13  2  0
 19 18  1  0
 20 14  1  0
 20 19  2  0
 21 19  1  0
 22 21  1  0
 23 22  1  0
 24 23  1  0
 25 24  1  0
 26 25  1  0
 26 22  1  0
M  END
>  <smiles>  (118) 
NCc1cccc(NC(=O)c2cccn3cc(CN4CCCC4)nc23)c1

>  <inchikey>  (118) 
CXFHCSHWVXWGOY-UHFFFAOYSA-N

>  <alias>  (118) 
Z3093a

$$$$
Z3094a
     RDKit          3D

 23 25  0  0  0  0  0  0  0  0999 V2000
   -6.4120    5.3630  -13.8710 O   0  0  0  0  0  0  0  0  0  0  0  0
   -7.4290    4.7820  -14.2430 C   0  0  0  0  0  0  0  0  0  0  0  0
   -8.3510    4.2820  -13.3770 N   0  0  0  0  0  0  0  0  0  0  0  0
   -8.3370    4.3590  -11.9580 C   0  0  0  0  0  0  0  0  0  0  0  0
   -8.7570    3.2780  -11.1900 C   0  0  0  0  0  0  0  0  0  0  0  0
   -8.7930    3.3570   -9.7990 C   0  0  0  0  0  0  0  0  0  0  0  0
   -9.3630    2.2410   -8.9830 C   0  0  0  0  0  0  0  0  0  0  0  0
   -8.2920    1.6480   -8.1930 N   0  0  0  0  0  0  0  0  0  0  0  0
   -8.3670    4.5250   -9.1880 C   0  0  0  0  0  0  0  0  0  0  0  0
   -7.9480    5.6060   -9.9440 C   0  0  0  0  0  0  0  0  0  0  0  0
   -7.9350    5.5310  -11.3270 C   0  0  0  0  0  0  0  0  0  0  0  0
   -7.7170    4.5950  -15.7080 C   0  0  0  0  0  0  0  0  0  0  0  0
   -8.9680    4.1110  -16.0930 C   0  0  0  0  0  0  0  0  0  0  0  0
   -9.3010    3.8940  -17.4260 C   0  0  0  0  0  0  0  0  0  0  0  0
   -8.3880    4.1430  -18.4380 C   0  0  0  0  0  0  0  0  0  0  0  0
   -7.1420    4.6310  -18.0670 C   0  0  0  0  0  0  0  0  0  0  0  0
   -6.7970    4.8670  -16.7340 C   0  0  0  0  0  0  0  0  0  0  0  0
   -5.5020    5.3750  -16.6800 N   0  0  0  0  0  0  0  0  0  0  0  0
   -6.0340    4.9980  -18.8130 N   0  0  0  0  0  0  0  0  0  0  0  0
   -5.0980    5.4270  -17.9320 C   0  0  0  0  0  0  0  0  0  0  0  0
   -3.7120    5.8860  -18.2920 C   0  0  2  0  0  0  0  0  0  0  0  0
   -3.6420    6.4700  -19.6850 C   0  0  0  0  0  0  0  0  0  0  0  0
   -2.6910    4.7860  -18.0830 C   0  0  0  0  0  0  0  0  0  0  0  0
  2  1  2  0
  3  2  1  0
  4  3  1  0
  5  4  2  0
  6  5  1  0
  7  6  1  0
  8  7  1  0
  9  6  2  0
 10  9  1  0
 11  4  1  0
 11 10  2  0
 12  2  1  0
 13 12  2  0
 14 13  1  0
 15 14  2  0
 16 15  1  0
 17 16  2  0
 17 12  1  0
 18 17  1  0
 19 16  1  0
 20 19  1  0
 20 18  2  0
 21 20  1  0
 21 22  1  6
 23 21  1  0
M  END
>  <smiles>  (119) 
CC(C)c1nc2c(C(=O)Nc3cccc(CN)c3)cccc2[nH]1

>  <inchikey>  (119) 
YESKCYOWTDUTOG-UHFFFAOYSA-N

>  <alias>  (119) 
Z3094a

$$$$
Z3264a
     RDKit          3D

 23 25  0  0  0  0  0  0  0  0999 V2000
   -6.8830    5.8620  -13.9120 O   0  0  0  0  0  0  0  0  0  0  0  0
   -7.6960    5.0380  -14.3230 C   0  0  0  0  0  0  0  0  0  0  0  0
   -7.8650    4.7900  -15.7870 C   0  0  0  0  0  0  0  0  0  0  0  0
   -9.1140    4.4640  -16.3040 C   0  0  0  0  0  0  0  0  0  0  0  0
   -9.2580    4.3180  -17.6690 C   0  0  0  0  0  0  0  0  0  0  0  0
  -10.8490    4.0330  -18.3270 Cl  0  0  0  0  0  0  0  0  0  0  0  0
   -8.1880    4.4520  -18.5290 C   0  0  0  0  0  0  0  0  0  0  0  0
   -6.7790    4.9360  -16.6480 C   0  0  0  0  0  0  0  0  0  0  0  0
   -6.9300    4.7610  -18.0180 C   0  0  0  0  0  0  0  0  0  0  0  0
   -5.7370    4.8910  -18.9330 C   0  0  0  0  0  0  0  0  0  0  0  0
   -5.8440    6.1160  -19.7320 N   0  0  0  0  0  0  0  0  0  0  0  0
   -8.4980    4.3170  -13.5040 N   0  0  0  0  0  0  0  0  0  0  0  0
   -8.5260    4.3810  -12.0850 C   0  0  0  0  0  0  0  0  0  0  0  0
   -8.4770    5.6160  -11.4440 C   0  0  0  0  0  0  0  0  0  0  0  0
   -8.4740    5.6900  -10.0550 C   0  0  0  0  0  0  0  0  0  0  0  0
   -8.4840    4.5120   -9.3100 C   0  0  0  0  0  0  0  0  0  0  0  0
   -8.5390    3.2840   -9.9470 C   0  0  0  0  0  0  0  0  0  0  0  0
   -8.5640    3.2140  -11.3320 C   0  0  0  0  0  0  0  0  0  0  0  0
   -8.6070    7.0040   -9.3880 C   0  0  0  0  0  0  0  0  0  0  0  0
   -8.5350    7.1440   -8.0680 N   0  0  0  0  0  0  0  0  0  0  0  0
   -8.8930    8.4160   -7.9350 N   0  0  0  0  0  0  0  0  0  0  0  0
   -9.1460    9.0270   -9.0690 N   0  0  0  0  0  0  0  0  0  0  0  0
   -8.9570    8.1410  -10.0260 N   0  0  0  0  0  0  0  0  0  0  0  0
  2  1  2  0
  3  2  1  0
  4  3  2  0
  5  4  1  0
  6  5  1  0
  7  5  2  0
  8  3  1  0
  9  8  2  0
  9  7  1  0
 10  9  1  0
 11 10  1  0
 12  2  1  0
 13 12  1  0
 14 13  2  0
 15 14  1  0
 16 15  2  0
 17 16  1  0
 18 13  1  0
 18 17  2  0
 19 15  1  0
 20 19  1  0
 21 20  2  0
 22 21  1  0
 23 22  1  0
 23 19  2  0
M  END
>  <smiles>  (120) 
NCc1cc(Cl)cc(C(=O)Nc2cccc(-c3nn[nH]n3)c2)c1

>  <inchikey>  (120) 
GXTYEIDOIJJIOR-UHFFFAOYSA-N

>  <alias>  (120) 
Z3264a

$$$$
Z3394a
     RDKit          3D

 23 26  0  0  0  0  0  0  0  0999 V2000
   -9.5120    7.3890  -13.3020 N   0  0  0  0  0  0  0  0  0  0  0  0
   -9.1250    6.3080  -13.4130 C   0  0  0  0  0  0  0  0  0  0  0  0
   -8.7140    4.8880  -13.6190 C   0  0  2  0  0  0  0  0  0  0  0  0
   -7.8750    4.3360  -12.5730 N   0  0  0  0  0  0  0  0  0  0  0  0
   -8.2660    4.2390  -11.2320 C   0  0  0  0  0  0  0  0  0  0  0  0
   -8.0890    5.3550  -10.4050 C   0  0  0  0  0  0  0  0  0  0  0  0
   -8.3240    5.2600   -9.0460 C   0  0  0  0  0  0  0  0  0  0  0  0
   -8.6890    4.0310   -8.5100 C   0  0  0  0  0  0  0  0  0  0  0  0
   -8.8680    2.9190   -9.3260 C   0  0  0  0  0  0  0  0  0  0  0  0
   -8.6280    2.9960  -10.6920 C   0  0  0  0  0  0  0  0  0  0  0  0
   -9.3100    1.7560   -8.4850 C   0  0  0  0  0  0  0  0  0  0  0  0
   -8.9330    2.2060   -7.1370 N   0  0  0  0  0  0  0  0  0  0  0  0
   -9.0280    3.6710   -7.0920 C   0  0  0  0  0  0  0  0  0  0  0  0
   -8.1980    4.6990  -15.0350 C   0  0  0  0  0  0  0  0  0  0  0  0
   -9.1550    4.3870  -15.9770 C   0  0  0  0  0  0  0  0  0  0  0  0
   -8.8500    4.2710  -17.3240 C   0  0  0  0  0  0  0  0  0  0  0  0
  -10.1720    3.8440  -18.3630 Cl  0  0  0  0  0  0  0  0  0  0  0  0
   -7.5710    4.4430  -17.8180 C   0  0  0  0  0  0  0  0  0  0  0  0
   -6.5990    4.8020  -16.8820 C   0  0  0  0  0  0  0  0  0  0  0  0
   -5.2720    5.0150  -17.0400 N   0  0  0  0  0  0  0  0  0  0  0  0
   -4.6730    5.2740  -15.8430 N   0  0  0  0  0  0  0  0  0  0  0  0
   -5.6220    5.2360  -14.9210 C   0  0  0  0  0  0  0  0  0  0  0  0
   -6.8810    4.9410  -15.5030 C   0  0  0  0  0  0  0  0  0  0  0  0
  2  1  3  0
  3  2  1  1
  4  3  1  0
  5  4  1  0
  6  5  2  0
  7  6  1  0
  8  7  2  0
  9  8  1  0
 10  5  1  0
 10  9  2  0
 11  9  1  0
 12 11  1  0
 13 12  1  0
 13  8  1  0
 14  3  1  0
 15 14  2  0
 16 15  1  0
 17 16  1  0
 18 16  2  0
 19 18  1  0
 20 19  1  0
 21 20  1  0
 22 21  2  0
 23 19  2  0
 23 22  1  0
 23 14  1  0
M  END
>  <smiles>  (121) 
N#C[C@H](Nc1ccc2c(c1)CNC2)c1cc(Cl)cc2[nH]ncc12

>  <inchikey>  (121) 
JYHIVSRGFWRCHH-KRWDZBQOSA-N

>  <alias>  (121) 
Z3394a

$$$$
Z3397a
     RDKit          3D

 27 30  0  0  0  0  0  0  0  0999 V2000
   -4.2740    4.0370  -11.5570 C   0  0  0  0  0  0  0  0  0  0  0  0
   -4.5860    3.4160  -12.9050 C   0  0  1  0  0  0  0  0  0  0  0  0
   -3.4490    2.5550  -13.4160 C   0  0  0  0  0  0  0  0  0  0  0  0
   -5.7910    2.5950  -12.7990 N   0  0  0  0  0  0  0  0  0  0  0  0
   -6.9140    2.8360  -13.4750 C   0  0  0  0  0  0  0  0  0  0  0  0
   -7.6280    1.9480  -13.9200 O   0  0  0  0  0  0  0  0  0  0  0  0
   -7.3060    4.3180  -13.6130 C   0  0  2  0  0  0  0  0  0  0  0  0
   -8.4090    4.6870  -12.7430 N   0  0  0  0  0  0  0  0  0  0  0  0
   -8.5520    4.1880  -11.4490 C   0  0  0  0  0  0  0  0  0  0  0  0
   -8.9890    2.8650  -11.2720 C   0  0  0  0  0  0  0  0  0  0  0  0
   -9.1070    2.3160  -10.0090 C   0  0  0  0  0  0  0  0  0  0  0  0
   -8.7900    3.0950   -8.9090 C   0  0  0  0  0  0  0  0  0  0  0  0
   -8.3980    4.4190   -9.0650 C   0  0  0  0  0  0  0  0  0  0  0  0
   -8.2460    4.9790  -10.3300 C   0  0  0  0  0  0  0  0  0  0  0  0
   -8.1590    5.0160   -7.7070 C   0  0  0  0  0  0  0  0  0  0  0  0
   -8.0530    3.8110   -6.8640 N   0  0  0  0  0  0  0  0  0  0  0  0
   -8.9030    2.7680   -7.4480 C   0  0  0  0  0  0  0  0  0  0  0  0
   -7.4530    4.6140  -15.1000 C   0  0  0  0  0  0  0  0  0  0  0  0
   -8.6360    4.3620  -15.7950 C   0  0  0  0  0  0  0  0  0  0  0  0
   -8.7050    4.5310  -17.1850 C   0  0  0  0  0  0  0  0  0  0  0  0
  -10.2100    4.2460  -18.0230 Cl  0  0  0  0  0  0  0  0  0  0  0  0
   -7.6110    4.9150  -17.9380 C   0  0  0  0  0  0  0  0  0  0  0  0
   -6.4200    5.1280  -17.2510 C   0  0  0  0  0  0  0  0  0  0  0  0
   -5.1950    5.4830  -17.7040 N   0  0  0  0  0  0  0  0  0  0  0  0
   -4.2980    5.5620  -16.6820 N   0  0  0  0  0  0  0  0  0  0  0  0
   -4.9530    5.2480  -15.5770 C   0  0  0  0  0  0  0  0  0  0  0  0
   -6.3130    4.9710  -15.8590 C   0  0  0  0  0  0  0  0  0  0  0  0
  2  1  1  1
  3  2  1  0
  4  2  1  0
  5  4  1  0
  6  5  2  0
  7  5  1  0
  7  8  1  1
  9  8  1  0
 10  9  2  0
 11 10  1  0
 12 11  2  0
 13 12  1  0
 14  9  1  0
 14 13  2  0
 15 13  1  0
 16 15  1  0
 17 16  1  0
 17 12  1  0
 18  7  1  0
 19 18  2  0
 20 19  1  0
 21 20  1  0
 22 20  2  0
 23 22  1  0
 24 23  1  0
 25 24  1  0
 26 25  2  0
 27 23  2  0
 27 18  1  0
 27 26  1  0
M  END
>  <smiles>  (122) 
CC(C)NC(=O)[C@H](Nc1ccc2c(c1)CNC2)c1cc(Cl)cc2[nH]ncc12

>  <inchikey>  (122) 
GVVOHEDOQMGYIG-LJQANCHMSA-N

>  <alias>  (122) 
Z3397a

$$$$
Z3400a
     RDKit          3D

 22 25  0  0  0  0  0  0  0  0999 V2000
   -6.5720    5.2710  -13.0780 O   0  0  0  0  0  0  0  0  0  0  0  0
   -7.4470    4.6060  -13.6260 C   0  0  0  0  0  0  0  0  0  0  0  0
   -8.3590    3.8990  -12.9180 N   0  0  0  0  0  0  0  0  0  0  0  0
   -8.4860    3.8990  -11.4970 C   0  0  0  0  0  0  0  0  0  0  0  0
   -8.3430    5.0880  -10.7800 C   0  0  0  0  0  0  0  0  0  0  0  0
   -8.4360    5.0960   -9.3950 C   0  0  0  0  0  0  0  0  0  0  0  0
   -8.6500    3.8930   -8.7270 C   0  0  0  0  0  0  0  0  0  0  0  0
   -8.8280    2.7130   -9.4370 C   0  0  0  0  0  0  0  0  0  0  0  0
   -8.7040    2.6900  -10.8220 C   0  0  0  0  0  0  0  0  0  0  0  0
   -9.1290    1.5940   -8.4800 C   0  0  0  0  0  0  0  0  0  0  0  0
   -8.7060    2.1690   -7.1900 N   0  0  0  0  0  0  0  0  0  0  0  0
   -8.8570    3.6360   -7.2620 C   0  0  0  0  0  0  0  0  0  0  0  0
   -7.4680    4.5130  -15.1260 C   0  0  0  0  0  0  0  0  0  0  0  0
   -8.6090    4.1910  -15.8540 C   0  0  0  0  0  0  0  0  0  0  0  0
   -8.5830    4.1650  -17.2380 C   0  0  0  0  0  0  0  0  0  0  0  0
  -10.1990    3.8450  -18.1910 Br  0  0  0  0  0  0  0  0  0  0  0  0
   -7.4510    4.4290  -17.9710 C   0  0  0  0  0  0  0  0  0  0  0  0
   -6.2870    4.7250  -17.2700 C   0  0  0  0  0  0  0  0  0  0  0  0
   -5.0090    4.9580  -17.7160 N   0  0  0  0  0  0  0  0  0  0  0  0
   -4.1840    5.1110  -16.6310 C   0  0  0  0  0  0  0  0  0  0  0  0
   -4.9100    5.0170  -15.4800 C   0  0  0  0  0  0  0  0  0  0  0  0
   -6.2650    4.7500  -15.8600 C   0  0  0  0  0  0  0  0  0  0  0  0
  2  1  2  0
  3  2  1  0
  4  3  1  0
  5  4  2  0
  6  5  1  0
  7  6  2  0
  8  7  1  0
  9  4  1  0
  9  8  2  0
 10  8  1  0
 11 10  1  0
 12 11  1  0
 12  7  1  0
 13  2  1  0
 14 13  2  0
 15 14  1  0
 16 15  1  0
 17 15  2  0
 18 17  1  0
 19 18  1  0
 20 19  1  0
 21 20  2  0
 22 18  2  0
 22 13  1  0
 22 21  1  0
M  END
>  <smiles>  (123) 
O=C(Nc1ccc2c(c1)CNC2)c1cc(Br)cc2[nH]ccc12

>  <inchikey>  (123) 
BXMKAELKOMHUTP-UHFFFAOYSA-N

>  <alias>  (123) 
Z3400a

$$$$
Z3432a
     RDKit          3D

 23 26  0  0  0  0  0  0  0  0999 V2000
   -7.2780    6.2130  -13.2350 O   0  0  0  0  0  0  0  0  0  0  0  0
   -7.6280    5.1500  -13.7310 C   0  0  0  0  0  0  0  0  0  0  0  0
   -8.1380    4.1160  -13.0080 N   0  0  0  0  0  0  0  0  0  0  0  0
   -8.3080    4.0650  -11.5940 C   0  0  0  0  0  0  0  0  0  0  0  0
   -7.9810    5.1830  -10.8300 C   0  0  0  0  0  0  0  0  0  0  0  0
   -8.1290    5.1650   -9.4550 C   0  0  0  0  0  0  0  0  0  0  0  0
   -8.5620    3.9990   -8.8390 C   0  0  0  0  0  0  0  0  0  0  0  0
   -8.9030    2.8840   -9.5930 C   0  0  0  0  0  0  0  0  0  0  0  0
   -8.7710    2.8950  -10.9750 C   0  0  0  0  0  0  0  0  0  0  0  0
   -9.3750    1.7940   -8.6740 C   0  0  0  0  0  0  0  0  0  0  0  0
   -8.8640    2.2550   -7.3740 N   0  0  0  0  0  0  0  0  0  0  0  0
   -8.8400    3.7250   -7.3880 C   0  0  0  0  0  0  0  0  0  0  0  0
   -7.4690    4.9060  -15.2090 C   0  0  0  0  0  0  0  0  0  0  0  0
   -8.5640    4.5010  -15.9410 C   0  0  0  0  0  0  0  0  0  0  0  0
   -8.4840    4.3630  -17.3120 C   0  0  0  0  0  0  0  0  0  0  0  0
  -10.0170    3.8030  -18.2910 Br  0  0  0  0  0  0  0  0  0  0  0  0
   -7.3270    4.6090  -17.9870 C   0  0  0  0  0  0  0  0  0  0  0  0
   -6.1820    5.0370  -17.2820 C   0  0  0  0  0  0  0  0  0  0  0  0
   -4.9650    5.2820  -17.9640 C   0  0  0  0  0  0  0  0  0  0  0  0
   -3.8550    5.6870  -17.2940 C   0  0  0  0  0  0  0  0  0  0  0  0
   -3.8930    5.8460  -15.9020 C   0  0  0  0  0  0  0  0  0  0  0  0
   -5.0460    5.5970  -15.2120 C   0  0  0  0  0  0  0  0  0  0  0  0
   -6.2370    5.1960  -15.8710 C   0  0  0  0  0  0  0  0  0  0  0  0
  2  1  2  0
  3  2  1  0
  4  3  1  0
  5  4  2  0
  6  5  1  0
  7  6  2  0
  8  7  1  0
  9  4  1  0
  9  8  2  0
 10  8  1  0
 11 10  1  0
 12 11  1  0
 12  7  1  0
 13  2  1  0
 14 13  2  0
 15 14  1  0
 16 15  1  0
 17 15  2  0
 18 17  1  0
 19 18  1  0
 20 19  2  0
 21 20  1  0
 22 21  2  0
 23 18  2  0
 23 13  1  0
 23 22  1  0
M  END
>  <smiles>  (124) 
O=C(Nc1ccc2c(c1)CNC2)c1cc(Br)cc2ccccc12

>  <inchikey>  (124) 
XJBLHUNGQLAOGU-UHFFFAOYSA-N

>  <alias>  (124) 
Z3432a

$$$$
Z3439a
     RDKit          3D

 28 31  0  0  0  0  0  0  0  0999 V2000
   -7.5170    1.8170  -13.8250 O   0  0  0  0  0  0  0  0  0  0  0  0
   -6.9030    2.7310  -13.2930 C   0  0  0  0  0  0  0  0  0  0  0  0
   -5.8640    2.5300  -12.4820 N   0  0  0  0  0  0  0  0  0  0  0  0
   -4.6340    3.3040  -12.5240 C   0  0  0  0  0  0  0  0  0  0  0  0
   -3.8970    3.1480  -13.8330 C   0  0  2  0  0  0  0  0  0  0  0  0
   -4.1960    1.9780  -14.4550 F   0  0  0  0  0  0  0  0  0  0  0  0
   -2.5570    3.1150  -13.6240 F   0  0  0  0  0  0  0  0  0  0  0  0
   -7.3450    4.1980  -13.4550 C   0  0  2  0  0  0  0  0  0  0  0  0
   -8.4510    4.5370  -12.5890 N   0  0  0  0  0  0  0  0  0  0  0  0
   -8.3880    4.4490  -11.2050 C   0  0  0  0  0  0  0  0  0  0  0  0
   -8.0900    5.5950  -10.4550 C   0  0  0  0  0  0  0  0  0  0  0  0
   -8.1040    5.5390   -9.0710 C   0  0  0  0  0  0  0  0  0  0  0  0
   -8.4180    4.3370   -8.4450 C   0  0  0  0  0  0  0  0  0  0  0  0
   -8.7720    3.2180   -9.1880 C   0  0  0  0  0  0  0  0  0  0  0  0
   -8.7700    3.2610  -10.5750 C   0  0  0  0  0  0  0  0  0  0  0  0
   -9.1460    2.0880   -8.2710 C   0  0  0  0  0  0  0  0  0  0  0  0
   -8.6790    2.5740   -6.9650 N   0  0  0  0  0  0  0  0  0  0  0  0
   -8.5860    4.0430   -6.9820 C   0  0  0  0  0  0  0  0  0  0  0  0
   -7.5530    4.5200  -14.9310 C   0  0  0  0  0  0  0  0  0  0  0  0
   -8.6600    4.1360  -15.6870 C   0  0  0  0  0  0  0  0  0  0  0  0
   -8.6860    4.3840  -17.0500 C   0  0  0  0  0  0  0  0  0  0  0  0
  -10.0490    3.8980  -18.0320 Cl  0  0  0  0  0  0  0  0  0  0  0  0
   -7.6500    5.0450  -17.6640 C   0  0  0  0  0  0  0  0  0  0  0  0
   -6.5650    5.4840  -16.9230 C   0  0  0  0  0  0  0  0  0  0  0  0
   -5.4000    6.1560  -17.5620 C   0  0  2  0  0  0  0  0  0  0  0  0
   -4.0990    5.4500  -17.7490 C   0  0  0  0  0  0  0  0  0  0  0  0
   -4.1880    6.5570  -16.7860 C   0  0  0  0  0  0  0  0  0  0  0  0
   -6.5090    5.1600  -15.5770 C   0  0  0  0  0  0  0  0  0  0  0  0
  2  1  2  0
  3  2  1  0
  4  3  1  0
  5  4  1  0
  5  6  1  1
  7  5  1  0
  8  2  1  0
  8  9  1  1
 10  9  1  0
 11 10  2  0
 12 11  1  0
 13 12  2  0
 14 13  1  0
 15 10  1  0
 15 14  2  0
 16 14  1  0
 17 16  1  0
 18 17  1  0
 18 13  1  0
 19  8  1  0
 20 19  2  0
 21 20  1  0
 22 21  1  0
 23 21  2  0
 24 23  1  0
 25 24  1  1
 26 25  1  0
 27 26  1  0
 27 25  1  0
 28 19  1  0
 28 24  2  0
M  END
>  <smiles>  (125) 
O=C(NCC(F)F)[C@H](Nc1ccc2c(c1)CNC2)c1cc(Cl)cc(C2CC2)c1

>  <inchikey>  (125) 
ZBDKUHJVDDPOHR-HXUWFJFHSA-N

>  <alias>  (125) 
Z3439a

$$$$
Z3440a
     RDKit          3D

 24 27  0  0  0  0  0  0  0  0999 V2000
   -6.8030    5.7600  -13.7120 O   0  0  0  0  0  0  0  0  0  0  0  0
   -7.6700    5.0140  -14.1650 C   0  0  0  0  0  0  0  0  0  0  0  0
   -8.4990    4.2920  -13.3760 N   0  0  0  0  0  0  0  0  0  0  0  0
   -8.5980    4.3740  -11.9600 C   0  0  0  0  0  0  0  0  0  0  0  0
   -8.2610    5.5520  -11.3040 C   0  0  0  0  0  0  0  0  0  0  0  0
   -8.3370    5.6350   -9.9300 C   0  0  0  0  0  0  0  0  0  0  0  0
   -8.6310    4.5050   -9.1860 C   0  0  0  0  0  0  0  0  0  0  0  0
   -8.9770    3.3080   -9.8160 C   0  0  0  0  0  0  0  0  0  0  0  0
   -8.9250    3.2500  -11.2040 C   0  0  0  0  0  0  0  0  0  0  0  0
   -9.3810    2.1080   -8.9960 C   0  0  0  0  0  0  0  0  0  0  0  0
   -8.3480    1.6330   -8.0880 N   0  0  0  0  0  0  0  0  0  0  0  0
   -8.2790    2.3890   -6.8360 C   0  0  0  0  0  0  0  0  0  0  0  0
   -7.7930    3.8060   -7.0360 C   0  0  0  0  0  0  0  0  0  0  0  0
   -8.7540    4.5170   -7.8220 O   0  0  0  0  0  0  0  0  0  0  0  0
   -7.7930    4.8300  -15.6520 C   0  0  0  0  0  0  0  0  0  0  0  0
   -8.9950    4.4580  -16.2440 C   0  0  0  0  0  0  0  0  0  0  0  0
   -9.0990    4.2990  -17.6120 C   0  0  0  0  0  0  0  0  0  0  0  0
  -10.6480    3.8850  -18.3040 Cl  0  0  0  0  0  0  0  0  0  0  0  0
   -8.0220    4.4380  -18.4700 C   0  0  0  0  0  0  0  0  0  0  0  0
   -6.8050    4.8000  -17.9020 C   0  0  0  0  0  0  0  0  0  0  0  0
   -5.5840    4.9920  -18.4490 N   0  0  0  0  0  0  0  0  0  0  0  0
   -4.6580    5.2870  -17.4940 N   0  0  0  0  0  0  0  0  0  0  0  0
   -5.2910    5.2820  -16.3340 C   0  0  0  0  0  0  0  0  0  0  0  0
   -6.6640    4.9820  -16.5130 C   0  0  0  0  0  0  0  0  0  0  0  0
  2  1  2  0
  3  2  1  0
  4  3  1  0
  5  4  2  0
  6  5  1  0
  7  6  2  0
  8  7  1  0
  9  4  1  0
  9  8  2  0
 10  8  1  0
 11 10  1  0
 12 11  1  0
 13 12  1  0
 14 13  1  0
 14  7  1  0
 15  2  1  0
 16 15  2  0
 17 16  1  0
 18 17  1  0
 19 17  2  0
 20 19  1  0
 21 20  1  0
 22 21  1  0
 23 22  2  0
 24 20  2  0
 24 15  1  0
 24 23  1  0
M  END
>  <smiles>  (126) 
O=C(Nc1ccc2c(c1)CNCCO2)c1cc(Cl)cc2[nH]ncc12

>  <inchikey>  (126) 
NDKXPXSHGRTVLE-UHFFFAOYSA-N

>  <alias>  (126) 
Z3440a

$$$$
Z3441a
     RDKit          3D

 22 25  0  0  0  0  0  0  0  0999 V2000
   -6.8080    5.6580  -13.3980 O   0  0  0  0  0  0  0  0  0  0  0  0
   -7.5970    4.8280  -13.8450 C   0  0  0  0  0  0  0  0  0  0  0  0
   -8.3040    3.9750  -13.0650 N   0  0  0  0  0  0  0  0  0  0  0  0
   -8.4340    4.0090  -11.6520 C   0  0  0  0  0  0  0  0  0  0  0  0
   -8.1980    5.1950  -10.9580 C   0  0  0  0  0  0  0  0  0  0  0  0
   -8.3010    5.2310   -9.5780 C   0  0  0  0  0  0  0  0  0  0  0  0
   -8.6090    4.0590   -8.8950 C   0  0  0  0  0  0  0  0  0  0  0  0
   -8.8660    2.8810   -9.5830 C   0  0  0  0  0  0  0  0  0  0  0  0
   -8.7390    2.8260  -10.9650 C   0  0  0  0  0  0  0  0  0  0  0  0
   -9.2220    1.8010   -8.6020 C   0  0  0  0  0  0  0  0  0  0  0  0
   -8.7110    2.3640   -7.3430 N   0  0  0  0  0  0  0  0  0  0  0  0
   -8.8050    3.8280   -7.4220 C   0  0  0  0  0  0  0  0  0  0  0  0
   -7.7620    4.6810  -15.3280 C   0  0  0  0  0  0  0  0  0  0  0  0
   -8.9570    4.2280  -15.8740 C   0  0  0  0  0  0  0  0  0  0  0  0
   -9.0970    4.1070  -17.2410 C   0  0  0  0  0  0  0  0  0  0  0  0
  -10.2950    3.7020  -17.7520 F   0  0  0  0  0  0  0  0  0  0  0  0
   -8.0830    4.3570  -18.1280 C   0  0  0  0  0  0  0  0  0  0  0  0
   -6.8690    4.7920  -17.6160 C   0  0  0  0  0  0  0  0  0  0  0  0
   -5.6860    5.0730  -18.2080 N   0  0  0  0  0  0  0  0  0  0  0  0
   -4.7510    5.4380  -17.2890 N   0  0  0  0  0  0  0  0  0  0  0  0
   -5.3270    5.3420  -16.1030 C   0  0  0  0  0  0  0  0  0  0  0  0
   -6.6790    4.9370  -16.2300 C   0  0  0  0  0  0  0  0  0  0  0  0
  2  1  2  0
  3  2  1  0
  4  3  1  0
  5  4  2  0
  6  5  1  0
  7  6  2  0
  8  7  1  0
  9  4  1  0
  9  8  2  0
 10  8  1  0
 11 10  1  0
 12 11  1  0
 12  7  1  0
 13  2  1  0
 14 13  2  0
 15 14  1  0
 16 15  1  0
 17 15  2  0
 18 17  1  0
 19 18  1  0
 20 19  1  0
 21 20  2  0
 22 18  2  0
 22 13  1  0
 22 21  1  0
M  END
>  <smiles>  (127) 
O=C(Nc1ccc2c(c1)CNC2)c1cc(F)cc2[nH]ncc12

>  <inchikey>  (127) 
UHVFGIOFMTYLJX-UHFFFAOYSA-N

>  <alias>  (127) 
Z3441a

$$$$
Z3452a
     RDKit          3D

 22 25  0  0  0  0  0  0  0  0999 V2000
   -6.7350    5.4690  -13.3770 O   0  0  0  0  0  0  0  0  0  0  0  0
   -7.5840    4.7080  -13.8370 C   0  0  0  0  0  0  0  0  0  0  0  0
   -8.3680    3.9240  -13.0590 N   0  0  0  0  0  0  0  0  0  0  0  0
   -8.4800    3.9640  -11.6400 C   0  0  0  0  0  0  0  0  0  0  0  0
   -8.2220    5.1430  -10.9420 C   0  0  0  0  0  0  0  0  0  0  0  0
   -8.3020    5.1730   -9.5590 C   0  0  0  0  0  0  0  0  0  0  0  0
   -8.5870    3.9960   -8.8770 C   0  0  0  0  0  0  0  0  0  0  0  0
   -8.8500    2.8210   -9.5660 C   0  0  0  0  0  0  0  0  0  0  0  0
   -8.7700    2.7800  -10.9510 C   0  0  0  0  0  0  0  0  0  0  0  0
   -9.1820    1.7310   -8.5860 C   0  0  0  0  0  0  0  0  0  0  0  0
   -8.6680    2.2970   -7.3320 N   0  0  0  0  0  0  0  0  0  0  0  0
   -8.7790    3.7600   -7.4050 C   0  0  0  0  0  0  0  0  0  0  0  0
   -7.7510    4.5900  -15.3240 C   0  0  0  0  0  0  0  0  0  0  0  0
   -8.9490    4.1630  -15.8890 C   0  0  0  0  0  0  0  0  0  0  0  0
   -9.0920    4.1060  -17.2610 C   0  0  0  0  0  0  0  0  0  0  0  0
  -10.2880    3.7280  -17.7950 F   0  0  0  0  0  0  0  0  0  0  0  0
   -8.0700    4.3850  -18.1300 C   0  0  0  0  0  0  0  0  0  0  0  0
   -6.8640    4.8000  -17.5850 C   0  0  0  0  0  0  0  0  0  0  0  0
   -5.6600    5.1390  -18.1030 N   0  0  0  0  0  0  0  0  0  0  0  0
   -4.7920    5.4360  -17.1290 N   0  0  0  0  0  0  0  0  0  0  0  0
   -5.3910    5.2850  -15.9750 N   0  0  0  0  0  0  0  0  0  0  0  0
   -6.6950    4.9010  -16.2010 C   0  0  0  0  0  0  0  0  0  0  0  0
  2  1  2  0
  3  2  1  0
  4  3  1  0
  5  4  2  0
  6  5  1  0
  7  6  2  0
  8  7  1  0
  9  4  1  0
  9  8  2  0
 10  8  1  0
 11 10  1  0
 12 11  1  0
 12  7  1  0
 13  2  1  0
 14 13  2  0
 15 14  1  0
 16 15  1  0
 17 15  2  0
 18 17  1  0
 19 18  1  0
 20 19  1  0
 21 20  2  0
 22 18  2  0
 22 13  1  0
 22 21  1  0
M  END
>  <smiles>  (128) 
O=C(Nc1ccc2c(c1)CNC2)c1cc(F)cc2[nH]nnc12

>  <inchikey>  (128) 
DHEAQALHKCHLOS-UHFFFAOYSA-N

>  <alias>  (128) 
Z3452a

$$$$
Z3463a
     RDKit          3D

 26 29  0  0  0  0  0  0  0  0999 V2000
   -4.4240    2.0820  -13.2140 C   0  0  0  0  0  0  0  0  0  0  0  0
   -5.4120    3.1410  -13.2110 N   0  0  0  0  0  0  0  0  0  0  0  0
   -6.6490    2.9650  -13.6750 C   0  0  0  0  0  0  0  0  0  0  0  0
   -7.1650    1.8610  -13.8060 O   0  0  0  0  0  0  0  0  0  0  0  0
   -7.3880    4.2670  -14.0580 C   0  0  2  0  0  0  0  0  0  0  0  0
   -8.5940    4.4110  -13.2710 N   0  0  0  0  0  0  0  0  0  0  0  0
   -8.4840    4.6390  -11.9050 C   0  0  0  0  0  0  0  0  0  0  0  0
   -7.9580    5.8580  -11.4570 C   0  0  0  0  0  0  0  0  0  0  0  0
   -7.8060    6.0890  -10.1010 C   0  0  0  0  0  0  0  0  0  0  0  0
   -8.1250    5.0790   -9.2030 C   0  0  0  0  0  0  0  0  0  0  0  0
   -8.5720    3.8490   -9.6530 C   0  0  0  0  0  0  0  0  0  0  0  0
   -8.7460    3.5930  -11.0050 C   0  0  0  0  0  0  0  0  0  0  0  0
   -8.8000    2.9860   -8.4910 C   0  0  0  0  0  0  0  0  0  0  0  0
   -9.1260    1.8280   -8.4190 O   0  0  0  0  0  0  0  0  0  0  0  0
   -8.5900    3.7260   -7.3670 O   0  0  0  0  0  0  0  0  0  0  0  0
   -8.0420    5.0270   -7.7110 C   0  0  0  0  0  0  0  0  0  0  0  0
   -7.6070    4.3770  -15.5620 C   0  0  0  0  0  0  0  0  0  0  0  0
   -8.8440    4.1130  -16.1440 C   0  0  0  0  0  0  0  0  0  0  0  0
   -9.0200    4.2070  -17.5300 C   0  0  0  0  0  0  0  0  0  0  0  0
  -10.5820    3.8600  -18.2300 Cl  0  0  0  0  0  0  0  0  0  0  0  0
   -7.9890    4.5460  -18.3830 C   0  0  0  0  0  0  0  0  0  0  0  0
   -6.7500    4.8020  -17.8050 C   0  0  0  0  0  0  0  0  0  0  0  0
   -5.5720    5.1490  -18.3660 N   0  0  0  0  0  0  0  0  0  0  0  0
   -4.6060    5.3100  -17.4210 N   0  0  0  0  0  0  0  0  0  0  0  0
   -5.1700    5.0520  -16.2540 C   0  0  0  0  0  0  0  0  0  0  0  0
   -6.5380    4.7300  -16.4190 C   0  0  0  0  0  0  0  0  0  0  0  0
  2  1  1  0
  3  2  1  0
  4  3  2  0
  5  3  1  0
  5  6  1  1
  7  6  1  0
  8  7  2  0
  9  8  1  0
 10  9  2  0
 11 10  1  0
 12  7  1  0
 12 11  2  0
 13 11  1  0
 14 13  2  0
 15 13  1  0
 16 15  1  0
 16 10  1  0
 17  5  1  0
 18 17  2  0
 19 18  1  0
 20 19  1  0
 21 19  2  0
 22 21  1  0
 23 22  1  0
 24 23  1  0
 25 24  2  0
 26 22  2  0
 26 17  1  0
 26 25  1  0
M  END
>  <smiles>  (129) 
CNC(=O)[C@H](Nc1ccc2c(c1)C(=O)OC2)c1cc(Cl)cc2[nH]ncc12

>  <inchikey>  (129) 
HNZZZCIGBNYXEQ-MRXNPFEDSA-N

>  <alias>  (129) 
Z3463a

$$$$
Z3464a
     RDKit          3D

 23 26  0  0  0  0  0  0  0  0999 V2000
   -5.9910    4.3220  -21.0500 O   0  0  0  0  0  0  0  0  0  0  0  0
   -6.1090    4.5070  -19.8450 C   0  0  0  0  0  0  0  0  0  0  0  0
   -4.9960    5.1250  -19.0480 C   0  0  0  0  0  0  0  0  0  0  0  0
   -5.0830    4.9890  -17.6310 O   0  0  0  0  0  0  0  0  0  0  0  0
   -6.3160    4.7920  -17.0730 C   0  0  0  0  0  0  0  0  0  0  0  0
   -6.3830    4.8720  -15.7060 C   0  0  0  0  0  0  0  0  0  0  0  0
   -7.5810    4.6200  -15.0420 C   0  0  0  0  0  0  0  0  0  0  0  0
   -7.5480    4.8020  -13.5560 C   0  0  0  0  0  0  0  0  0  0  0  0
   -6.6790    5.5010  -13.0450 O   0  0  0  0  0  0  0  0  0  0  0  0
   -8.4270    4.0670  -12.8370 N   0  0  0  0  0  0  0  0  0  0  0  0
   -8.5540    4.0300  -11.4240 C   0  0  0  0  0  0  0  0  0  0  0  0
   -8.2920    5.1750  -10.6730 C   0  0  0  0  0  0  0  0  0  0  0  0
   -8.3960    5.1440   -9.2930 C   0  0  0  0  0  0  0  0  0  0  0  0
   -8.6870    3.9370   -8.6700 C   0  0  0  0  0  0  0  0  0  0  0  0
   -8.9360    2.7920   -9.4140 C   0  0  0  0  0  0  0  0  0  0  0  0
   -8.8390    2.8100  -10.7980 C   0  0  0  0  0  0  0  0  0  0  0  0
   -9.2580    1.6600   -8.4810 C   0  0  0  0  0  0  0  0  0  0  0  0
   -8.6950    2.1630   -7.2220 N   0  0  0  0  0  0  0  0  0  0  0  0
   -8.8630    3.6240   -7.2120 C   0  0  0  0  0  0  0  0  0  0  0  0
   -8.7150    4.2970  -15.7930 C   0  0  0  0  0  0  0  0  0  0  0  0
   -8.6380    4.1730  -17.1670 C   0  0  0  0  0  0  0  0  0  0  0  0
   -7.4270    4.4080  -17.8160 C   0  0  0  0  0  0  0  0  0  0  0  0
   -7.2780    4.2740  -19.2080 N   0  0  0  0  0  0  0  0  0  0  0  0
  2  1  2  0
  3  2  1  0
  4  3  1  0
  5  4  1  0
  6  5  2  0
  7  6  1  0
  8  7  1  0
  9  8  2  0
 10  8  1  0
 11 10  1  0
 12 11  2  0
 13 12  1  0
 14 13  2  0
 15 14  1  0
 16 11  1  0
 16 15  2  0
 17 15  1  0
 18 17  1  0
 19 18  1  0
 19 14  1  0
 20  7  2  0
 21 20  1  0
 22 21  2  0
 22  5  1  0
 23 22  1  0
 23  2  1  0
M  END
>  <smiles>  (130) 
O=C1COc2cc(C(=O)Nc3ccc4c(c3)CNC4)ccc2N1

>  <inchikey>  (130) 
NZWKBDJIUFDJIL-UHFFFAOYSA-N

>  <alias>  (130) 
Z3464a

$$$$
Z3465a
     RDKit          3D

 21 24  0  0  0  0  0  0  0  0999 V2000
   -6.5930    5.7280  -12.8680 O   0  0  0  0  0  0  0  0  0  0  0  0
   -7.3720    4.9260  -13.3680 C   0  0  0  0  0  0  0  0  0  0  0  0
   -8.1760    4.1220  -12.6350 N   0  0  0  0  0  0  0  0  0  0  0  0
   -8.2760    4.0850  -11.2220 C   0  0  0  0  0  0  0  0  0  0  0  0
   -7.9550    5.2160  -10.4740 C   0  0  0  0  0  0  0  0  0  0  0  0
   -8.0130    5.1820   -9.0910 C   0  0  0  0  0  0  0  0  0  0  0  0
   -8.3850    4.0000   -8.4650 C   0  0  0  0  0  0  0  0  0  0  0  0
   -8.6580    2.8570   -9.2020 C   0  0  0  0  0  0  0  0  0  0  0  0
   -8.6110    2.8800  -10.5910 C   0  0  0  0  0  0  0  0  0  0  0  0
   -8.9790    1.7260   -8.2670 C   0  0  0  0  0  0  0  0  0  0  0  0
   -9.2910    2.4460   -7.0250 N   0  0  0  0  0  0  0  0  0  0  0  0
   -8.5040    3.6880   -7.0010 C   0  0  0  0  0  0  0  0  0  0  0  0
   -7.4090    4.7410  -14.8530 C   0  0  0  0  0  0  0  0  0  0  0  0
   -6.3340    5.2060  -15.5950 C   0  0  0  0  0  0  0  0  0  0  0  0
   -6.3240    5.1460  -16.9780 C   0  0  0  0  0  0  0  0  0  0  0  0
   -7.4270    4.6070  -17.6360 C   0  0  0  0  0  0  0  0  0  0  0  0
   -7.5510    4.4480  -19.0250 N   0  0  0  0  0  0  0  0  0  0  0  0
   -8.7130    3.9330  -19.3100 C   0  0  0  0  0  0  0  0  0  0  0  0
   -9.7710    3.5840  -17.9750 S   0  0  0  0  0  0  0  0  0  0  0  0
   -8.5270    4.1650  -16.8910 C   0  0  0  0  0  0  0  0  0  0  0  0
   -8.5440    4.2540  -15.5040 C   0  0  0  0  0  0  0  0  0  0  0  0
  2  1  2  0
  3  2  1  0
  4  3  1  0
  5  4  2  0
  6  5  1  0
  7  6  2  0
  8  7  1  0
  9  4  1  0
  9  8  2  0
 10  8  1  0
 11 10  1  0
 12 11  1  0
 12  7  1  0
 13  2  1  0
 14 13  2  0
 15 14  1  0
 16 15  2  0
 17 16  1  0
 18 17  2  0
 19 18  1  0
 20 19  1  0
 20 16  1  0
 21 20  2  0
 21 13  1  0
M  END
>  <smiles>  (131) 
O=C(Nc1ccc2c(c1)CNC2)c1ccc2ncsc2c1

>  <inchikey>  (131) 
WOBUXKXPKQOMFV-UHFFFAOYSA-N

>  <alias>  (131) 
Z3465a

$$$$
Z3466a
     RDKit          3D

 21 24  0  0  0  0  0  0  0  0999 V2000
   -6.6970    5.5610  -13.3410 O   0  0  0  0  0  0  0  0  0  0  0  0
   -7.5350    4.7780  -13.7830 C   0  0  0  0  0  0  0  0  0  0  0  0
   -8.2770    3.9510  -13.0040 N   0  0  0  0  0  0  0  0  0  0  0  0
   -8.4050    3.9330  -11.5890 C   0  0  0  0  0  0  0  0  0  0  0  0
   -8.1830    5.0990  -10.8620 C   0  0  0  0  0  0  0  0  0  0  0  0
   -8.3040    5.0980   -9.4820 C   0  0  0  0  0  0  0  0  0  0  0  0
   -8.5860    3.9040   -8.8300 C   0  0  0  0  0  0  0  0  0  0  0  0
   -8.7990    2.7370   -9.5490 C   0  0  0  0  0  0  0  0  0  0  0  0
   -8.6940    2.7270  -10.9340 C   0  0  0  0  0  0  0  0  0  0  0  0
   -9.1380    1.6290   -8.5930 C   0  0  0  0  0  0  0  0  0  0  0  0
   -8.6310    2.1690   -7.3240 N   0  0  0  0  0  0  0  0  0  0  0  0
   -8.7880    3.6300   -7.3680 C   0  0  0  0  0  0  0  0  0  0  0  0
   -7.7480    4.6670  -15.2630 C   0  0  0  0  0  0  0  0  0  0  0  0
   -8.9910    4.2870  -15.7480 C   0  0  0  0  0  0  0  0  0  0  0  0
   -9.2650    4.1970  -17.0580 N   0  0  0  0  0  0  0  0  0  0  0  0
   -8.2940    4.3790  -17.9530 C   0  0  0  0  0  0  0  0  0  0  0  0
   -7.0090    4.7250  -17.5710 C   0  0  0  0  0  0  0  0  0  0  0  0
   -5.8710    4.9850  -18.2560 N   0  0  0  0  0  0  0  0  0  0  0  0
   -4.8420    5.2630  -17.4060 N   0  0  0  0  0  0  0  0  0  0  0  0
   -5.3300    5.2040  -16.1790 C   0  0  0  0  0  0  0  0  0  0  0  0
   -6.7050    4.8710  -16.2060 C   0  0  0  0  0  0  0  0  0  0  0  0
  2  1  2  0
  3  2  1  0
  4  3  1  0
  5  4  2  0
  6  5  1  0
  7  6  2  0
  8  7  1  0
  9  4  1  0
  9  8  2  0
 10  8  1  0
 11 10  1  0
 12 11  1  0
 12  7  1  0
 13  2  1  0
 14 13  2  0
 15 14  1  0
 16 15  2  0
 17 16  1  0
 18 17  1  0
 19 18  1  0
 20 19  2  0
 21 17  2  0
 21 13  1  0
 21 20  1  0
M  END
>  <smiles>  (132) 
O=C(Nc1ccc2c(c1)CNC2)c1cncc2[nH]ncc12

>  <inchikey>  (132) 
FSWBAJPFWVZQJQ-UHFFFAOYSA-N

>  <alias>  (132) 
Z3466a

$$$$
Z3468a
     RDKit          3D

 29 34  0  0  0  0  0  0  0  0999 V2000
   -5.0320    6.7320  -19.3280 C   0  0  0  0  0  0  0  0  0  0  0  0
   -4.0560    5.9160  -18.4970 C   0  0  2  0  0  0  0  0  0  0  0  0
   -3.5670    4.6700  -19.1750 C   0  0  1  0  0  0  0  0  0  0  0  0
   -2.5140    4.8660  -20.2180 C   0  0  0  0  0  0  0  0  0  0  0  0
   -2.1570    4.2540  -18.9030 C   0  0  0  0  0  0  0  0  0  0  0  0
   -4.6080    5.6040  -17.1710 N   0  0  0  0  0  0  0  0  0  0  0  0
   -3.8480    5.7490  -16.0430 N   0  0  0  0  0  0  0  0  0  0  0  0
   -4.6100    5.4350  -15.0150 C   0  0  0  0  0  0  0  0  0  0  0  0
   -5.8970    5.0410  -15.4560 C   0  0  0  0  0  0  0  0  0  0  0  0
   -7.0970    4.5510  -14.8600 C   0  0  0  0  0  0  0  0  0  0  0  0
   -7.1860    4.5670  -13.3610 C   0  0  0  0  0  0  0  0  0  0  0  0
   -6.4220    5.2910  -12.7240 O   0  0  0  0  0  0  0  0  0  0  0  0
   -8.0760    3.7570  -12.7470 N   0  0  0  0  0  0  0  0  0  0  0  0
   -8.3050    3.7510  -11.3470 C   0  0  0  0  0  0  0  0  0  0  0  0
   -8.0900    4.9260  -10.6290 C   0  0  0  0  0  0  0  0  0  0  0  0
   -8.2360    4.9460   -9.2530 C   0  0  0  0  0  0  0  0  0  0  0  0
   -8.5570    3.7640   -8.5970 C   0  0  0  0  0  0  0  0  0  0  0  0
   -8.7600    2.5870   -9.3050 C   0  0  0  0  0  0  0  0  0  0  0  0
   -8.6030    2.5530  -10.6840 C   0  0  0  0  0  0  0  0  0  0  0  0
   -9.1150    1.4860   -8.3480 C   0  0  0  0  0  0  0  0  0  0  0  0
   -8.6750    2.0590   -7.0680 N   0  0  0  0  0  0  0  0  0  0  0  0
   -8.8240    3.5190   -7.1400 C   0  0  0  0  0  0  0  0  0  0  0  0
   -8.1540    4.2760  -15.7270 C   0  0  0  0  0  0  0  0  0  0  0  0
   -7.9780    4.4120  -17.1440 C   0  0  0  0  0  0  0  0  0  0  0  0
   -9.0450    4.1410  -18.1430 C   0  0  1  0  0  0  0  0  0  0  0  0
   -9.2120    2.7610  -18.6910 C   0  0  0  0  0  0  0  0  0  0  0  0
  -10.2440    3.3190  -17.8100 C   0  0  0  0  0  0  0  0  0  0  0  0
   -6.8320    4.8040  -17.6800 N   0  0  0  0  0  0  0  0  0  0  0  0
   -5.8300    5.1270  -16.8570 C   0  0  0  0  0  0  0  0  0  0  0  0
  2  1  1  6
  3  2  1  0
  3  4  1  6
  5  4  1  0
  5  3  1  0
  6  2  1  0
  7  6  1  0
  8  7  2  0
  9  8  1  0
 10  9  2  0
 11 10  1  0
 12 11  2  0
 13 11  1  0
 14 13  1  0
 15 14  2  0
 16 15  1  0
 17 16  2  0
 18 17  1  0
 19 14  1  0
 19 18  2  0
 20 18  1  0
 21 20  1  0
 22 21  1  0
 22 17  1  0
 23 10  1  0
 24 23  2  0
 25 24  1  1
 26 25  1  0
 27 26  1  0
 27 25  1  0
 28 24  1  0
 29 28  2  0
 29  9  1  0
 29  6  1  0
M  END
>  <smiles>  (133) 
C[C@H](C1CC1)n1ncc2c(C(=O)Nc3ccc4c(c3)CNC4)cc(C3CC3)nc21

>  <inchikey>  (133) 
LQGYSQDYHUVOGH-CYBMUJFWSA-N

>  <alias>  (133) 
Z3468a

$$$$
Z3469a
     RDKit          3D

 22 25  0  0  0  0  0  0  0  0999 V2000
   -6.5710    5.3220  -12.9030 O   0  0  0  0  0  0  0  0  0  0  0  0
   -7.4530    4.6530  -13.4390 C   0  0  0  0  0  0  0  0  0  0  0  0
   -8.3490    3.9180  -12.7440 N   0  0  0  0  0  0  0  0  0  0  0  0
   -8.4930    3.8960  -11.3350 C   0  0  0  0  0  0  0  0  0  0  0  0
   -8.2650    5.0600  -10.6020 C   0  0  0  0  0  0  0  0  0  0  0  0
   -8.3430    5.0460   -9.2210 C   0  0  0  0  0  0  0  0  0  0  0  0
   -8.6240    3.8470   -8.5800 C   0  0  0  0  0  0  0  0  0  0  0  0
   -8.8630    2.6870   -9.3060 C   0  0  0  0  0  0  0  0  0  0  0  0
   -8.7600    2.6830  -10.6900 C   0  0  0  0  0  0  0  0  0  0  0  0
   -9.1840    1.5640   -8.3640 C   0  0  0  0  0  0  0  0  0  0  0  0
   -8.6930    2.1050   -7.0900 N   0  0  0  0  0  0  0  0  0  0  0  0
   -8.8260    3.5670   -7.1170 C   0  0  0  0  0  0  0  0  0  0  0  0
   -7.5170    4.5530  -14.9310 C   0  0  0  0  0  0  0  0  0  0  0  0
   -8.6500    4.1320  -15.6450 C   0  0  0  0  0  0  0  0  0  0  0  0
   -8.6290    4.0710  -17.0290 C   0  0  0  0  0  0  0  0  0  0  0  0
   -9.7260    3.7090  -17.7200 F   0  0  0  0  0  0  0  0  0  0  0  0
   -7.4600    4.4140  -17.6870 C   0  0  0  0  0  0  0  0  0  0  0  0
   -7.1600    4.4330  -19.0210 N   0  0  0  0  0  0  0  0  0  0  0  0
   -5.8560    4.8320  -19.1690 C   0  0  0  0  0  0  0  0  0  0  0  0
   -5.2870    5.0630  -17.9560 C   0  0  0  0  0  0  0  0  0  0  0  0
   -6.3010    4.8070  -16.9840 C   0  0  0  0  0  0  0  0  0  0  0  0
   -6.3410    4.8760  -15.5960 C   0  0  0  0  0  0  0  0  0  0  0  0
  2  1  2  0
  3  2  1  0
  4  3  1  0
  5  4  2  0
  6  5  1  0
  7  6  2  0
  8  7  1  0
  9  4  1  0
  9  8  2  0
 10  8  1  0
 11 10  1  0
 12 11  1  0
 12  7  1  0
 13  2  1  0
 14 13  2  0
 15 14  1  0
 16 15  1  0
 17 15  2  0
 18 17  1  0
 19 18  1  0
 20 19  2  0
 21 17  1  0
 21 20  1  0
 22 21  2  0
 22 13  1  0
M  END
>  <smiles>  (134) 
O=C(Nc1ccc2c(c1)CNC2)c1cc(F)c2[nH]ccc2c1

>  <inchikey>  (134) 
CFIZJVCNXZYYGZ-UHFFFAOYSA-N

>  <alias>  (134) 
Z3469a

$$$$
Z3472a
     RDKit          3D

 31 35  0  0  0  0  0  0  0  0999 V2000
   -7.1440    2.0510  -13.8060 O   0  0  0  0  0  0  0  0  0  0  0  0
   -6.7660    3.0340  -13.1780 C   0  0  0  0  0  0  0  0  0  0  0  0
   -5.6900    3.0410  -12.3890 N   0  0  0  0  0  0  0  0  0  0  0  0
   -4.4610    2.3340  -12.7250 C   0  0  0  0  0  0  0  0  0  0  0  0
   -3.4940    3.1670  -13.5370 C   0  0  0  0  0  0  0  0  0  0  0  0
   -3.8390    3.7170  -14.7560 C   0  0  0  0  0  0  0  0  0  0  0  0
   -2.9350    4.5050  -15.4470 C   0  0  0  0  0  0  0  0  0  0  0  0
   -1.6920    4.7070  -14.9010 C   0  0  0  0  0  0  0  0  0  0  0  0
   -1.3070    4.1590  -13.7340 N   0  0  0  0  0  0  0  0  0  0  0  0
   -2.2160    3.4210  -13.0760 C   0  0  0  0  0  0  0  0  0  0  0  0
   -7.4840    4.3950  -13.2770 C   0  0  2  0  0  0  0  0  0  0  0  0
   -8.6650    4.4930  -12.4550 N   0  0  0  0  0  0  0  0  0  0  0  0
   -8.5710    4.4180  -11.0710 C   0  0  0  0  0  0  0  0  0  0  0  0
   -8.1980    5.5500  -10.3320 C   0  0  0  0  0  0  0  0  0  0  0  0
   -8.1570    5.4930   -8.9500 C   0  0  0  0  0  0  0  0  0  0  0  0
   -8.4840    4.3010   -8.3110 C   0  0  0  0  0  0  0  0  0  0  0  0
   -8.7920    3.1610   -9.0450 C   0  0  0  0  0  0  0  0  0  0  0  0
   -8.8490    3.2070  -10.4300 C   0  0  0  0  0  0  0  0  0  0  0  0
   -9.0520    2.0060   -8.1210 C   0  0  0  0  0  0  0  0  0  0  0  0
   -9.1420    2.6680   -6.8100 N   0  0  0  0  0  0  0  0  0  0  0  0
   -8.4270    3.9550   -6.8500 C   0  0  0  0  0  0  0  0  0  0  0  0
   -7.6590    4.8150  -14.7320 C   0  0  0  0  0  0  0  0  0  0  0  0
   -8.6090    4.3050  -15.6260 C   0  0  0  0  0  0  0  0  0  0  0  0
   -8.5930    4.6850  -16.9810 C   0  0  0  0  0  0  0  0  0  0  0  0
   -9.8100    4.0970  -18.0970 Cl  0  0  0  0  0  0  0  0  0  0  0  0
   -7.6500    5.5670  -17.4820 C   0  0  0  0  0  0  0  0  0  0  0  0
   -6.7430    6.1110  -16.5740 C   0  0  0  0  0  0  0  0  0  0  0  0
   -5.7300    6.9920  -16.7460 N   0  0  0  0  0  0  0  0  0  0  0  0
   -5.0310    7.1780  -15.5900 N   0  0  0  0  0  0  0  0  0  0  0  0
   -5.6520    6.4760  -14.6600 C   0  0  0  0  0  0  0  0  0  0  0  0
   -6.7090    5.7240  -15.2280 C   0  0  0  0  0  0  0  0  0  0  0  0
  2  1  2  0
  3  2  1  0
  4  3  1  0
  5  4  1  0
  6  5  2  0
  7  6  1  0
  8  7  2  0
  9  8  1  0
 10  9  2  0
 10  5  1  0
 11  2  1  0
 11 12  1  6
 13 12  1  0
 14 13  2  0
 15 14  1  0
 16 15  2  0
 17 16  1  0
 18 13  1  0
 18 17  2  0
 19 17  1  0
 20 19  1  0
 21 20  1  0
 21 16  1  0
 22 11  1  0
 23 22  2  0
 24 23  1  0
 25 24  1  0
 26 24  2  0
 27 26  1  0
 28 27  1  0
 29 28  1  0
 30 29  2  0
 31 22  1  0
 31 27  2  0
 31 30  1  0
M  END
>  <smiles>  (135) 
O=C(NCc1cccnc1)[C@H](Nc1ccc2c(c1)CNC2)c1cc(Cl)cc2[nH]ncc12

>  <inchikey>  (135) 
JNNGSTKEFPEKBI-JOCHJYFZSA-N

>  <alias>  (135) 
Z3472a

$$$$
Z3473a
     RDKit          3D

 21 23  0  0  0  0  0  0  0  0999 V2000
   -6.8680    3.7710  -20.4910 N   0  0  0  0  0  0  0  0  0  0  0  0
   -6.9930    3.9770  -19.3630 C   0  0  0  0  0  0  0  0  0  0  0  0
   -7.1370    4.1830  -17.9390 C   0  0  0  0  0  0  0  0  0  0  0  0
   -6.0330    4.5840  -17.1940 C   0  0  0  0  0  0  0  0  0  0  0  0
   -6.1490    4.7470  -15.8260 C   0  0  0  0  0  0  0  0  0  0  0  0
   -7.3630    4.5330  -15.1850 C   0  0  0  0  0  0  0  0  0  0  0  0
   -7.4420    4.8000  -13.7120 C   0  0  0  0  0  0  0  0  0  0  0  0
   -6.6280    5.5500  -13.1830 O   0  0  0  0  0  0  0  0  0  0  0  0
   -8.3500    4.0820  -13.0060 N   0  0  0  0  0  0  0  0  0  0  0  0
   -8.4940    4.0390  -11.5880 C   0  0  0  0  0  0  0  0  0  0  0  0
   -8.2480    5.1860  -10.8330 C   0  0  0  0  0  0  0  0  0  0  0  0
   -8.3720    5.1630   -9.4540 C   0  0  0  0  0  0  0  0  0  0  0  0
   -8.6670    3.9600   -8.8250 C   0  0  0  0  0  0  0  0  0  0  0  0
   -8.9070    2.8120   -9.5690 C   0  0  0  0  0  0  0  0  0  0  0  0
   -8.7650    2.8200  -10.9510 C   0  0  0  0  0  0  0  0  0  0  0  0
   -9.2290    1.6760   -8.6380 C   0  0  0  0  0  0  0  0  0  0  0  0
   -8.7330    2.1900   -7.3570 N   0  0  0  0  0  0  0  0  0  0  0  0
   -8.8520    3.6590   -7.3650 C   0  0  0  0  0  0  0  0  0  0  0  0
   -8.4810    4.1910  -15.9370 C   0  0  0  0  0  0  0  0  0  0  0  0
   -8.3650    3.9780  -17.3030 C   0  0  0  0  0  0  0  0  0  0  0  0
   -9.7920    3.5730  -18.2140 Cl  0  0  0  0  0  0  0  0  0  0  0  0
  2  1  3  0
  3  2  1  0
  4  3  2  0
  5  4  1  0
  6  5  2  0
  7  6  1  0
  8  7  2  0
  9  7  1  0
 10  9  1  0
 11 10  2  0
 12 11  1  0
 13 12  2  0
 14 13  1  0
 15 10  1  0
 15 14  2  0
 16 14  1  0
 17 16  1  0
 18 17  1  0
 18 13  1  0
 19  6  1  0
 20  3  1  0
 20 19  2  0
 21 20  1  0
M  END
>  <smiles>  (136) 
N#Cc1ccc(C(=O)Nc2ccc3c(c2)CNC3)cc1Cl

>  <inchikey>  (136) 
ATDUWAOTGSLZQW-UHFFFAOYSA-N

>  <alias>  (136) 
Z3473a

$$$$
Z3476a
     RDKit          3D

 21 24  0  0  0  0  0  0  0  0999 V2000
   -6.5980    5.2280  -13.2810 O   0  0  0  0  0  0  0  0  0  0  0  0
   -7.5730    4.6190  -13.7080 C   0  0  0  0  0  0  0  0  0  0  0  0
   -8.4670    3.9920  -12.9100 N   0  0  0  0  0  0  0  0  0  0  0  0
   -8.5620    4.0230  -11.4920 C   0  0  0  0  0  0  0  0  0  0  0  0
   -8.3210    5.1950  -10.7750 C   0  0  0  0  0  0  0  0  0  0  0  0
   -8.4210    5.2020   -9.3910 C   0  0  0  0  0  0  0  0  0  0  0  0
   -8.6930    4.0110   -8.7300 C   0  0  0  0  0  0  0  0  0  0  0  0
   -8.9160    2.8400   -9.4400 C   0  0  0  0  0  0  0  0  0  0  0  0
   -8.8030    2.8170  -10.8230 C   0  0  0  0  0  0  0  0  0  0  0  0
   -9.2040    1.7200   -8.4810 C   0  0  0  0  0  0  0  0  0  0  0  0
   -8.7030    2.2820   -7.2180 N   0  0  0  0  0  0  0  0  0  0  0  0
   -8.8640    3.7450   -7.2620 C   0  0  0  0  0  0  0  0  0  0  0  0
   -7.7880    4.5030  -15.1860 C   0  0  0  0  0  0  0  0  0  0  0  0
   -9.0160    4.1220  -15.7030 C   0  0  0  0  0  0  0  0  0  0  0  0
   -9.2440    4.0220  -17.0730 C   0  0  0  0  0  0  0  0  0  0  0  0
   -8.2410    4.2630  -17.9890 C   0  0  0  0  0  0  0  0  0  0  0  0
   -7.0020    4.6410  -17.4820 C   0  0  0  0  0  0  0  0  0  0  0  0
   -5.8160    4.9570  -18.0950 N   0  0  0  0  0  0  0  0  0  0  0  0
   -4.9430    5.2550  -17.1230 C   0  0  0  0  0  0  0  0  0  0  0  0
   -5.4330    5.1250  -15.9120 N   0  0  0  0  0  0  0  0  0  0  0  0
   -6.7650    4.7680  -16.1100 C   0  0  0  0  0  0  0  0  0  0  0  0
  2  1  2  0
  3  2  1  0
  4  3  1  0
  5  4  2  0
  6  5  1  0
  7  6  2  0
  8  7  1  0
  9  4  1  0
  9  8  2  0
 10  8  1  0
 11 10  1  0
 12 11  1  0
 12  7  1  0
 13  2  1  0
 14 13  2  0
 15 14  1  0
 16 15  2  0
 17 16  1  0
 18 17  1  0
 19 18  1  0
 20 19  2  0
 21 17  2  0
 21 13  1  0
 21 20  1  0
M  END
>  <smiles>  (137) 
O=C(Nc1ccc2c(c1)CNC2)c1cccc2[nH]cnc12

>  <inchikey>  (137) 
CACCFMCUTIQAGX-UHFFFAOYSA-N

>  <alias>  (137) 
Z3476a

$$$$
Z3477a
     RDKit          3D

 24 27  0  0  0  0  0  0  0  0999 V2000
   -5.8390    6.7550  -18.7130 C   0  0  0  0  0  0  0  0  0  0  0  0
   -5.9120    5.2370  -18.4610 C   0  0  2  0  0  0  0  0  0  0  0  0
   -4.5190    4.6340  -18.2080 C   0  0  0  0  0  0  0  0  0  0  0  0
   -6.5560    4.5590  -19.6820 C   0  0  0  0  0  0  0  0  0  0  0  0
   -6.0580    4.4710  -20.7880 O   0  0  0  0  0  0  0  0  0  0  0  0
   -7.7930    4.1540  -19.3240 N   0  0  0  0  0  0  0  0  0  0  0  0
   -7.9960    4.2820  -17.9370 C   0  0  0  0  0  0  0  0  0  0  0  0
   -9.0750    3.8700  -17.1830 C   0  0  0  0  0  0  0  0  0  0  0  0
   -9.0040    4.0520  -15.8170 C   0  0  0  0  0  0  0  0  0  0  0  0
   -7.9230    4.6910  -15.2230 C   0  0  0  0  0  0  0  0  0  0  0  0
   -7.8150    4.9250  -13.7490 C   0  0  0  0  0  0  0  0  0  0  0  0
   -6.9390    5.6630  -13.3110 O   0  0  0  0  0  0  0  0  0  0  0  0
   -8.6450    4.2020  -12.9590 N   0  0  0  0  0  0  0  0  0  0  0  0
   -8.6830    4.1700  -11.5380 C   0  0  0  0  0  0  0  0  0  0  0  0
   -8.3900    5.3220  -10.8140 C   0  0  0  0  0  0  0  0  0  0  0  0
   -8.4430    5.3130   -9.4310 C   0  0  0  0  0  0  0  0  0  0  0  0
   -8.7030    4.1170   -8.7760 C   0  0  0  0  0  0  0  0  0  0  0  0
   -8.9880    2.9620   -9.4920 C   0  0  0  0  0  0  0  0  0  0  0  0
   -8.9380    2.9590  -10.8780 C   0  0  0  0  0  0  0  0  0  0  0  0
   -9.2740    1.8370   -8.5360 C   0  0  0  0  0  0  0  0  0  0  0  0
   -8.7270    2.3670   -7.2780 N   0  0  0  0  0  0  0  0  0  0  0  0
   -8.8040    3.8360   -7.3040 C   0  0  0  0  0  0  0  0  0  0  0  0
   -6.8420    5.0980  -16.0100 C   0  0  0  0  0  0  0  0  0  0  0  0
   -6.8850    4.8870  -17.3740 C   0  0  0  0  0  0  0  0  0  0  0  0
  2  1  1  6
  3  2  1  0
  4  2  1  0
  5  4  2  0
  6  4  1  0
  7  6  1  0
  8  7  2  0
  9  8  1  0
 10  9  2  0
 11 10  1  0
 12 11  2  0
 13 11  1  0
 14 13  1  0
 15 14  2  0
 16 15  1  0
 17 16  2  0
 18 17  1  0
 19 14  1  0
 19 18  2  0
 20 18  1  0
 21 20  1  0
 22 21  1  0
 22 17  1  0
 23 10  1  0
 24  7  1  0
 24  2  1  0
 24 23  2  0
M  END
>  <smiles>  (138) 
CC1(C)C(=O)Nc2ccc(C(=O)Nc3ccc4c(c3)CNC4)cc21

>  <inchikey>  (138) 
WHUUMKMADJLIFG-UHFFFAOYSA-N

>  <alias>  (138) 
Z3477a

$$$$
Z3480a
     RDKit          3D

 22 24  0  0  0  0  0  0  0  0999 V2000
   -3.7550    5.9110  -19.0060 C   0  0  0  0  0  0  0  0  0  0  0  0
   -4.6580    5.5600  -17.8590 C   0  0  0  0  0  0  0  0  0  0  0  0
   -4.2270    5.4460  -16.7080 O   0  0  0  0  0  0  0  0  0  0  0  0
   -5.9570    5.3730  -18.2070 N   0  0  0  0  0  0  0  0  0  0  0  0
   -7.0360    4.9220  -17.4210 C   0  0  0  0  0  0  0  0  0  0  0  0
   -8.2400    4.4680  -17.9680 C   0  0  0  0  0  0  0  0  0  0  0  0
   -9.2250    4.0640  -17.0980 C   0  0  0  0  0  0  0  0  0  0  0  0
   -9.0050    4.1220  -15.7300 C   0  0  0  0  0  0  0  0  0  0  0  0
   -7.7990    4.6120  -15.2770 C   0  0  0  0  0  0  0  0  0  0  0  0
   -7.5060    4.7000  -13.7970 C   0  0  0  0  0  0  0  0  0  0  0  0
   -6.5930    5.4120  -13.3880 O   0  0  0  0  0  0  0  0  0  0  0  0
   -8.2840    3.9110  -13.0090 N   0  0  0  0  0  0  0  0  0  0  0  0
   -8.4290    3.9360  -11.5930 C   0  0  0  0  0  0  0  0  0  0  0  0
   -8.1990    5.1170  -10.8860 C   0  0  0  0  0  0  0  0  0  0  0  0
   -8.3440    5.1530   -9.5100 C   0  0  0  0  0  0  0  0  0  0  0  0
   -8.6490    3.9790   -8.8330 C   0  0  0  0  0  0  0  0  0  0  0  0
   -8.8760    2.8020   -9.5260 C   0  0  0  0  0  0  0  0  0  0  0  0
   -8.7520    2.7550  -10.9100 C   0  0  0  0  0  0  0  0  0  0  0  0
   -9.2370    1.7200   -8.5490 C   0  0  0  0  0  0  0  0  0  0  0  0
   -8.7240    2.2810   -7.2910 N   0  0  0  0  0  0  0  0  0  0  0  0
   -8.8720    3.7410   -7.3680 C   0  0  0  0  0  0  0  0  0  0  0  0
   -6.8230    5.0140  -16.1080 N   0  0  0  0  0  0  0  0  0  0  0  0
  2  1  1  0
  3  2  2  0
  4  2  1  0
  5  4  1  0
  6  5  2  0
  7  6  1  0
  8  7  2  0
  9  8  1  0
 10  9  1  0
 11 10  2  0
 12 10  1  0
 13 12  1  0
 14 13  2  0
 15 14  1  0
 16 15  2  0
 17 16  1  0
 18 13  1  0
 18 17  2  0
 19 17  1  0
 20 19  1  0
 21 20  1  0
 21 16  1  0
 22  5  1  0
 22  9  2  0
M  END
>  <smiles>  (139) 
CC(=O)Nc1cccc(C(=O)Nc2ccc3c(c2)CNC3)n1

>  <inchikey>  (139) 
KQBMXRREZCCFEX-UHFFFAOYSA-N

>  <alias>  (139) 
Z3480a

$$$$
Z3485a
     RDKit          3D

 23 26  0  0  0  0  0  0  0  0999 V2000
   -6.5800    5.2370  -13.1980 O   0  0  0  0  0  0  0  0  0  0  0  0
   -7.4780    4.5830  -13.7230 C   0  0  0  0  0  0  0  0  0  0  0  0
   -8.3710    3.8590  -13.0100 N   0  0  0  0  0  0  0  0  0  0  0  0
   -8.4960    3.8750  -11.5940 C   0  0  0  0  0  0  0  0  0  0  0  0
   -8.2410    5.0590  -10.9030 C   0  0  0  0  0  0  0  0  0  0  0  0
   -8.3690    5.1120   -9.5260 C   0  0  0  0  0  0  0  0  0  0  0  0
   -8.6300    3.9380   -8.8350 C   0  0  0  0  0  0  0  0  0  0  0  0
   -8.8630    2.7500   -9.5150 C   0  0  0  0  0  0  0  0  0  0  0  0
   -8.7600    2.6890  -10.8970 C   0  0  0  0  0  0  0  0  0  0  0  0
   -9.1630    1.6630   -8.5230 C   0  0  0  0  0  0  0  0  0  0  0  0
   -8.6590    2.2500   -7.2700 N   0  0  0  0  0  0  0  0  0  0  0  0
   -8.7960    3.7120   -7.3590 C   0  0  0  0  0  0  0  0  0  0  0  0
   -7.5520    4.5200  -15.2180 C   0  0  0  0  0  0  0  0  0  0  0  0
   -8.7220    4.2290  -15.9250 C   0  0  0  0  0  0  0  0  0  0  0  0
   -8.7240    4.2220  -17.3030 C   0  0  0  0  0  0  0  0  0  0  0  0
  -10.3540    3.8510  -18.2170 Br  0  0  0  0  0  0  0  0  0  0  0  0
   -7.5950    4.4660  -18.0490 C   0  0  0  0  0  0  0  0  0  0  0  0
   -6.4360    4.7740  -17.3730 C   0  0  0  0  0  0  0  0  0  0  0  0
   -5.1550    5.0660  -17.8120 N   0  0  0  0  0  0  0  0  0  0  0  0
   -4.3390    5.2430  -16.7300 C   0  0  0  0  0  0  0  0  0  0  0  0
   -3.1310    5.5030  -16.7580 O   0  0  0  0  0  0  0  0  0  0  0  0
   -5.0960    5.0610  -15.6090 N   0  0  0  0  0  0  0  0  0  0  0  0
   -6.3970    4.7940  -15.9730 C   0  0  0  0  0  0  0  0  0  0  0  0
  2  1  2  0
  3  2  1  0
  4  3  1  0
  5  4  2  0
  6  5  1  0
  7  6  2  0
  8  7  1  0
  9  4  1  0
  9  8  2  0
 10  8  1  0
 11 10  1  0
 12 11  1  0
 12  7  1  0
 13  2  1  0
 14 13  2  0
 15 14  1  0
 16 15  1  0
 17 15  2  0
 18 17  1  0
 19 18  1  0
 20 19  1  0
 21 20  2  0
 22 20  1  0
 23 18  2  0
 23 13  1  0
 23 22  1  0
M  END
>  <smiles>  (140) 
O=C(Nc1ccc2c(c1)CNC2)c1cc(Br)cc2[nH]c(=O)[nH]c12

>  <inchikey>  (140) 
ICDGBAJYMSURGO-UHFFFAOYSA-N

>  <alias>  (140) 
Z3485a

$$$$
Z3486a
     RDKit          3D

 22 25  0  0  0  0  0  0  0  0999 V2000
   -3.3250    5.3090  -17.5030 C   0  0  0  0  0  0  0  0  0  0  0  0
   -4.7130    5.0630  -17.1390 N   0  0  0  0  0  0  0  0  0  0  0  0
   -5.2290    5.0110  -15.9110 C   0  0  0  0  0  0  0  0  0  0  0  0
   -6.5780    4.7440  -16.0420 C   0  0  0  0  0  0  0  0  0  0  0  0
   -7.6600    4.5150  -15.1450 C   0  0  0  0  0  0  0  0  0  0  0  0
   -7.4940    4.6750  -13.6640 C   0  0  0  0  0  0  0  0  0  0  0  0
   -6.5910    5.3840  -13.2270 O   0  0  0  0  0  0  0  0  0  0  0  0
   -8.3330    3.9640  -12.8740 N   0  0  0  0  0  0  0  0  0  0  0  0
   -8.4540    3.9990  -11.4550 C   0  0  0  0  0  0  0  0  0  0  0  0
   -8.2740    5.1850  -10.7430 C   0  0  0  0  0  0  0  0  0  0  0  0
   -8.3900    5.1980   -9.3610 C   0  0  0  0  0  0  0  0  0  0  0  0
   -8.6240    4.0040   -8.6920 C   0  0  0  0  0  0  0  0  0  0  0  0
   -8.8290    2.8270   -9.3990 C   0  0  0  0  0  0  0  0  0  0  0  0
   -8.7040    2.7980  -10.7800 C   0  0  0  0  0  0  0  0  0  0  0  0
   -9.1290    1.7100   -8.4390 C   0  0  0  0  0  0  0  0  0  0  0  0
   -8.6960    2.2860   -7.1530 N   0  0  0  0  0  0  0  0  0  0  0  0
   -8.8130    3.7500   -7.2220 C   0  0  0  0  0  0  0  0  0  0  0  0
   -8.9060    4.2670  -15.6990 C   0  0  0  0  0  0  0  0  0  0  0  0
   -9.1040    4.1630  -17.0730 C   0  0  0  0  0  0  0  0  0  0  0  0
   -8.0730    4.3280  -17.9640 C   0  0  0  0  0  0  0  0  0  0  0  0
   -6.7910    4.6270  -17.4420 C   0  0  0  0  0  0  0  0  0  0  0  0
   -5.6350    4.8310  -18.1140 N   0  0  0  0  0  0  0  0  0  0  0  0
  2  1  1  0
  3  2  1  0
  4  3  2  0
  5  4  1  0
  6  5  1  0
  7  6  2  0
  8  6  1  0
  9  8  1  0
 10  9  2  0
 11 10  1  0
 12 11  2  0
 13 12  1  0
 14  9  1  0
 14 13  2  0
 15 13  1  0
 16 15  1  0
 17 16  1  0
 17 12  1  0
 18  5  2  0
 19 18  1  0
 20 19  2  0
 21 20  1  0
 21  4  1  0
 22 21  2  0
 22  2  1  0
M  END
>  <smiles>  (141) 
Cn1cc2c(C(=O)Nc3ccc4c(c3)CNC4)cccc2n1

>  <inchikey>  (141) 
PKNKNNODUGYURN-UHFFFAOYSA-N

>  <alias>  (141) 
Z3486a

$$$$
Z3487a
     RDKit          3D

 22 25  0  0  0  0  0  0  0  0999 V2000
   -4.4220    5.2850  -14.9250 N   0  0  0  0  0  0  0  0  0  0  0  0
   -5.1820    5.0670  -16.0270 C   0  0  0  0  0  0  0  0  0  0  0  0
   -4.6580    5.1140  -17.2230 N   0  0  0  0  0  0  0  0  0  0  0  0
   -5.6980    4.8570  -18.1740 O   0  0  0  0  0  0  0  0  0  0  0  0
   -6.8380    4.6390  -17.4740 C   0  0  0  0  0  0  0  0  0  0  0  0
   -8.0820    4.3130  -17.9930 C   0  0  0  0  0  0  0  0  0  0  0  0
   -9.1040    4.1440  -17.0770 C   0  0  0  0  0  0  0  0  0  0  0  0
   -8.8820    4.2680  -15.7090 C   0  0  0  0  0  0  0  0  0  0  0  0
   -7.6420    4.5950  -15.1870 C   0  0  0  0  0  0  0  0  0  0  0  0
   -7.4990    4.7270  -13.7020 C   0  0  0  0  0  0  0  0  0  0  0  0
   -6.6650    5.4940  -13.2360 O   0  0  0  0  0  0  0  0  0  0  0  0
   -8.3060    3.9530  -12.9370 N   0  0  0  0  0  0  0  0  0  0  0  0
   -8.4190    3.9530  -11.5190 C   0  0  0  0  0  0  0  0  0  0  0  0
   -8.2230    5.1340  -10.8060 C   0  0  0  0  0  0  0  0  0  0  0  0
   -8.3260    5.1430   -9.4250 C   0  0  0  0  0  0  0  0  0  0  0  0
   -8.5460    3.9460   -8.7550 C   0  0  0  0  0  0  0  0  0  0  0  0
   -8.7440    2.7660   -9.4600 C   0  0  0  0  0  0  0  0  0  0  0  0
   -8.6410    2.7440  -10.8460 C   0  0  0  0  0  0  0  0  0  0  0  0
   -9.0350    1.6460   -8.5020 C   0  0  0  0  0  0  0  0  0  0  0  0
   -8.6540    2.2300   -7.2060 N   0  0  0  0  0  0  0  0  0  0  0  0
   -8.7420    3.6980   -7.2850 C   0  0  0  0  0  0  0  0  0  0  0  0
   -6.5710    4.7850  -16.1170 C   0  0  0  0  0  0  0  0  0  0  0  0
  2  1  1  0
  3  2  2  0
  4  3  1  0
  5  4  1  0
  6  5  1  0
  7  6  2  0
  8  7  1  0
  9  8  2  0
 10  9  1  0
 11 10  2  0
 12 10  1  0
 13 12  1  0
 14 13  2  0
 15 14  1  0
 16 15  2  0
 17 16  1  0
 18 13  1  0
 18 17  2  0
 19 17  1  0
 20 19  1  0
 21 20  1  0
 21 16  1  0
 22  5  2  0
 22  9  1  0
 22  2  1  0
M  END
>  <smiles>  (142) 
Nc1noc2cccc(C(=O)Nc3ccc4c(c3)CNC4)c12

>  <inchikey>  (142) 
UAVCUMCKBBBMBV-UHFFFAOYSA-N

>  <alias>  (142) 
Z3487a

$$$$
Z3489a
     RDKit          3D

 30 34  0  0  0  0  0  0  0  0999 V2000
   -6.8070    2.0540  -13.5830 O   0  0  0  0  0  0  0  0  0  0  0  0
   -6.5800    3.1800  -13.1450 C   0  0  0  0  0  0  0  0  0  0  0  0
   -5.7260    3.4370  -12.1500 N   0  0  0  0  0  0  0  0  0  0  0  0
   -4.4130    2.8440  -11.9060 C   0  0  1  0  0  0  0  0  0  0  0  0
   -4.3620    2.0860  -10.5890 C   0  0  0  0  0  0  0  0  0  0  0  0
   -2.9720    1.5450  -10.3350 C   0  0  0  0  0  0  0  0  0  0  0  0
   -2.0740    1.8580  -11.3990 O   0  0  0  0  0  0  0  0  0  0  0  0
   -2.5400    1.3880  -12.6680 C   0  0  0  0  0  0  0  0  0  0  0  0
   -3.8290    2.0700  -13.0770 C   0  0  0  0  0  0  0  0  0  0  0  0
   -7.4220    4.4010  -13.5660 C   0  0  2  0  0  0  0  0  0  0  0  0
   -8.6410    4.3410  -12.7940 N   0  0  0  0  0  0  0  0  0  0  0  0
   -8.6070    4.2910  -11.4000 C   0  0  0  0  0  0  0  0  0  0  0  0
   -8.1580    5.4050  -10.6750 C   0  0  0  0  0  0  0  0  0  0  0  0
   -8.1490    5.3800   -9.2900 C   0  0  0  0  0  0  0  0  0  0  0  0
   -8.4820    4.2010   -8.6310 C   0  0  0  0  0  0  0  0  0  0  0  0
   -8.8680    3.0730   -9.3440 C   0  0  0  0  0  0  0  0  0  0  0  0
   -8.9350    3.1010  -10.7320 C   0  0  0  0  0  0  0  0  0  0  0  0
   -9.2120    1.9670   -8.3850 C   0  0  0  0  0  0  0  0  0  0  0  0
   -8.5840    2.4360   -7.1400 N   0  0  0  0  0  0  0  0  0  0  0  0
   -8.5550    3.9090   -7.1580 C   0  0  0  0  0  0  0  0  0  0  0  0
   -7.5530    4.4840  -15.0880 C   0  0  0  0  0  0  0  0  0  0  0  0
   -8.7550    4.2850  -15.7710 C   0  0  0  0  0  0  0  0  0  0  0  0
   -8.8080    4.3850  -17.1730 C   0  0  0  0  0  0  0  0  0  0  0  0
  -10.3060    4.1120  -18.0260 Cl  0  0  0  0  0  0  0  0  0  0  0  0
   -7.6920    4.6460  -17.9410 C   0  0  0  0  0  0  0  0  0  0  0  0
   -6.4930    4.8350  -17.2620 C   0  0  0  0  0  0  0  0  0  0  0  0
   -5.2380    5.0250  -17.7340 N   0  0  0  0  0  0  0  0  0  0  0  0
   -4.3360    5.0890  -16.7130 N   0  0  0  0  0  0  0  0  0  0  0  0
   -5.0230    4.9520  -15.5910 C   0  0  0  0  0  0  0  0  0  0  0  0
   -6.4010    4.7670  -15.8610 C   0  0  0  0  0  0  0  0  0  0  0  0
  2  1  2  0
  3  2  1  0
  4  3  1  6
  5  4  1  0
  6  5  1  0
  7  6  1  0
  8  7  1  0
  9  8  1  0
  9  4  1  0
 10  2  1  0
 10 11  1  1
 12 11  1  0
 13 12  2  0
 14 13  1  0
 15 14  2  0
 16 15  1  0
 17 12  1  0
 17 16  2  0
 18 16  1  0
 19 18  1  0
 20 19  1  0
 20 15  1  0
 21 10  1  0
 22 21  2  0
 23 22  1  0
 24 23  1  0
 25 23  2  0
 26 25  1  0
 27 26  1  0
 28 27  1  0
 29 28  2  0
 30 26  2  0
 30 21  1  0
 30 29  1  0
M  END
>  <smiles>  (143) 
O=C(NC1CCOCC1)[C@H](Nc1ccc2c(c1)CNC2)c1cc(Cl)cc2[nH]ncc12

>  <inchikey>  (143) 
SXMYZXOHVWFIQO-OAQYLSRUSA-N

>  <alias>  (143) 
Z3489a

$$$$
Z3495a
     RDKit          3D

 24 27  0  0  0  0  0  0  0  0999 V2000
   -7.1080    5.9290  -13.2370 O   0  0  0  0  0  0  0  0  0  0  0  0
   -7.6410    4.9300  -13.7030 C   0  0  0  0  0  0  0  0  0  0  0  0
   -8.2070    3.9690  -12.9360 N   0  0  0  0  0  0  0  0  0  0  0  0
   -8.3580    3.9950  -11.5230 C   0  0  0  0  0  0  0  0  0  0  0  0
   -8.1910    5.1910  -10.8260 C   0  0  0  0  0  0  0  0  0  0  0  0
   -8.3480    5.2320   -9.4490 C   0  0  0  0  0  0  0  0  0  0  0  0
   -8.6260    4.0540   -8.7700 C   0  0  0  0  0  0  0  0  0  0  0  0
   -8.7760    2.8560   -9.4560 C   0  0  0  0  0  0  0  0  0  0  0  0
   -8.6260    2.8040  -10.8350 C   0  0  0  0  0  0  0  0  0  0  0  0
   -9.1030    1.7590   -8.4800 C   0  0  0  0  0  0  0  0  0  0  0  0
   -8.7070    2.3660   -7.2000 N   0  0  0  0  0  0  0  0  0  0  0  0
   -8.8480    3.8260   -7.3000 C   0  0  0  0  0  0  0  0  0  0  0  0
   -7.5930    4.6890  -15.1810 C   0  0  0  0  0  0  0  0  0  0  0  0
   -8.7740    4.4040  -15.8720 C   0  0  0  0  0  0  0  0  0  0  0  0
   -8.7580    4.2830  -17.2420 C   0  0  0  0  0  0  0  0  0  0  0  0
  -10.2370    3.9120  -18.0850 Cl  0  0  0  0  0  0  0  0  0  0  0  0
   -7.5850    4.4290  -17.9600 C   0  0  0  0  0  0  0  0  0  0  0  0
   -6.4140    4.7470  -17.2970 C   0  0  0  0  0  0  0  0  0  0  0  0
   -6.4120    4.8590  -15.9170 C   0  0  0  0  0  0  0  0  0  0  0  0
   -5.1650    5.1590  -15.2560 N   0  0  0  0  0  0  0  0  0  0  0  0
   -4.0660    5.7990  -15.6960 C   0  0  0  0  0  0  0  0  0  0  0  0
   -3.1300    5.8030  -14.7720 N   0  0  0  0  0  0  0  0  0  0  0  0
   -3.6970    5.0900  -13.7750 C   0  0  0  0  0  0  0  0  0  0  0  0
   -4.9120    4.6470  -14.0100 N   0  0  0  0  0  0  0  0  0  0  0  0
  2  1  2  0
  3  2  1  0
  4  3  1  0
  5  4  2  0
  6  5  1  0
  7  6  2  0
  8  7  1  0
  9  4  1  0
  9  8  2  0
 10  8  1  0
 11 10  1  0
 12 11  1  0
 12  7  1  0
 13  2  1  0
 14 13  2  0
 15 14  1  0
 16 15  1  0
 17 15  2  0
 18 17  1  0
 19 18  2  0
 19 13  1  0
 20 19  1  0
 21 20  1  0
 22 21  2  0
 23 22  1  0
 24 23  2  0
 24 20  1  0
M  END
>  <smiles>  (144) 
O=C(Nc1ccc2c(c1)CNC2)c1cc(Cl)ccc1-n1cncn1

>  <inchikey>  (144) 
LLQKJCZAMTUJAP-UHFFFAOYSA-N

>  <alias>  (144) 
Z3495a

$$$$
Z3501a
     RDKit          3D

 25 28  0  0  0  0  0  0  0  0999 V2000
   -6.5980    5.2620  -13.2530 O   0  0  0  0  0  0  0  0  0  0  0  0
   -7.5390    4.6180  -13.7060 C   0  0  0  0  0  0  0  0  0  0  0  0
   -8.3910    3.9090  -12.9330 N   0  0  0  0  0  0  0  0  0  0  0  0
   -8.5000    3.9420  -11.5150 C   0  0  0  0  0  0  0  0  0  0  0  0
   -8.3120    5.1340  -10.8200 C   0  0  0  0  0  0  0  0  0  0  0  0
   -8.4510    5.1690   -9.4430 C   0  0  0  0  0  0  0  0  0  0  0  0
   -8.6750    3.9790   -8.7610 C   0  0  0  0  0  0  0  0  0  0  0  0
   -8.8390    2.7850   -9.4480 C   0  0  0  0  0  0  0  0  0  0  0  0
   -8.7040    2.7410  -10.8280 C   0  0  0  0  0  0  0  0  0  0  0  0
   -9.1070    1.6740   -8.4730 C   0  0  0  0  0  0  0  0  0  0  0  0
   -8.6730    2.2790   -7.2090 N   0  0  0  0  0  0  0  0  0  0  0  0
   -8.8580    3.7360   -7.2890 C   0  0  0  0  0  0  0  0  0  0  0  0
   -7.7390    4.5430  -15.1870 C   0  0  0  0  0  0  0  0  0  0  0  0
   -8.9440    4.1450  -15.7620 C   0  0  0  0  0  0  0  0  0  0  0  0
   -9.1070    4.0770  -17.1420 C   0  0  0  0  0  0  0  0  0  0  0  0
   -8.0620    4.3370  -17.9940 C   0  0  0  0  0  0  0  0  0  0  0  0
   -6.8400    4.7250  -17.4400 C   0  0  0  0  0  0  0  0  0  0  0  0
   -5.6420    5.0620  -18.0590 N   0  0  0  0  0  0  0  0  0  0  0  0
   -4.7990    5.3470  -17.0870 C   0  0  0  0  0  0  0  0  0  0  0  0
   -3.3790    5.7100  -17.3120 C   0  0  2  0  0  0  0  0  0  0  0  0
   -2.8430    5.0280  -18.3180 F   0  0  0  0  0  0  0  0  0  0  0  0
   -2.6320    5.4630  -16.2480 F   0  0  0  0  0  0  0  0  0  0  0  0
   -3.2250    6.9970  -17.5980 F   0  0  0  0  0  0  0  0  0  0  0  0
   -5.3690    5.1970  -15.8710 N   0  0  0  0  0  0  0  0  0  0  0  0
   -6.6740    4.8350  -16.0580 C   0  0  0  0  0  0  0  0  0  0  0  0
  2  1  2  0
  3  2  1  0
  4  3  1  0
  5  4  2  0
  6  5  1  0
  7  6  2  0
  8  7  1  0
  9  4  1  0
  9  8  2  0
 10  8  1  0
 11 10  1  0
 12 11  1  0
 12  7  1  0
 13  2  1  0
 14 13  2  0
 15 14  1  0
 16 15  2  0
 17 16  1  0
 18 17  1  0
 19 18  2  0
 20 19  1  0
 20 21  1  6
 22 20  1  0
 23 20  1  0
 24 19  1  0
 25 17  2  0
 25 13  1  0
 25 24  1  0
M  END
>  <smiles>  (145) 
O=C(Nc1ccc2c(c1)CNC2)c1cccc2nc(C(F)(F)F)[nH]c12

>  <inchikey>  (145) 
MCVXKGRMYLXFIV-UHFFFAOYSA-N

>  <alias>  (145) 
Z3501a

$$$$
Z3502a
     RDKit          3D

 23 26  0  0  0  0  0  0  0  0999 V2000
   -3.0040    5.6930  -16.9590 C   0  0  0  0  0  0  0  0  0  0  0  0
   -4.4590    5.4110  -16.8270 C   0  0  0  0  0  0  0  0  0  0  0  0
   -5.1220    5.3130  -15.6910 N   0  0  0  0  0  0  0  0  0  0  0  0
   -6.4460    5.0680  -16.0490 C   0  0  0  0  0  0  0  0  0  0  0  0
   -7.5750    4.7890  -15.2530 C   0  0  0  0  0  0  0  0  0  0  0  0
   -7.5280    4.9160  -13.7560 C   0  0  0  0  0  0  0  0  0  0  0  0
   -6.7420    5.7090  -13.2420 O   0  0  0  0  0  0  0  0  0  0  0  0
   -8.3290    4.0940  -13.0300 N   0  0  0  0  0  0  0  0  0  0  0  0
   -8.4890    4.0670  -11.6120 C   0  0  0  0  0  0  0  0  0  0  0  0
   -8.2340    5.2240  -10.8750 C   0  0  0  0  0  0  0  0  0  0  0  0
   -8.3560    5.2240   -9.4960 C   0  0  0  0  0  0  0  0  0  0  0  0
   -8.6570    4.0330   -8.8470 C   0  0  0  0  0  0  0  0  0  0  0  0
   -8.9000    2.8750   -9.5700 C   0  0  0  0  0  0  0  0  0  0  0  0
   -8.7970    2.8650  -10.9570 C   0  0  0  0  0  0  0  0  0  0  0  0
   -9.2500    1.7720   -8.6130 C   0  0  0  0  0  0  0  0  0  0  0  0
   -8.7130    2.2950   -7.3470 N   0  0  0  0  0  0  0  0  0  0  0  0
   -8.8580    3.7580   -7.3830 C   0  0  0  0  0  0  0  0  0  0  0  0
   -8.7810    4.5830  -15.9110 C   0  0  0  0  0  0  0  0  0  0  0  0
   -8.8380    4.5360  -17.2900 C   0  0  0  0  0  0  0  0  0  0  0  0
  -10.3680    4.2180  -18.0710 Cl  0  0  0  0  0  0  0  0  0  0  0  0
   -7.7240    4.7220  -18.0880 C   0  0  0  0  0  0  0  0  0  0  0  0
   -6.5300    5.0000  -17.4410 C   0  0  0  0  0  0  0  0  0  0  0  0
   -5.2580    5.2370  -17.9120 N   0  0  0  0  0  0  0  0  0  0  0  0
  2  1  1  0
  3  2  2  0
  4  3  1  0
  5  4  2  0
  6  5  1  0
  7  6  2  0
  8  6  1  0
  9  8  1  0
 10  9  2  0
 11 10  1  0
 12 11  2  0
 13 12  1  0
 14  9  1  0
 14 13  2  0
 15 13  1  0
 16 15  1  0
 17 16  1  0
 17 12  1  0
 18  5  1  0
 19 18  2  0
 20 19  1  0
 21 19  1  0
 22 21  2  0
 22  4  1  0
 23 22  1  0
 23  2  1  0
M  END
>  <smiles>  (146) 
Cc1nc2c(C(=O)Nc3ccc4c(c3)CNC4)cc(Cl)cc2[nH]1

>  <inchikey>  (146) 
UDLJCSBFJHWTRB-UHFFFAOYSA-N

>  <alias>  (146) 
Z3502a

$$$$
Z3503a
     RDKit          3D

 22 25  0  0  0  0  0  0  0  0999 V2000
   -6.7790    5.3720  -13.4320 O   0  0  0  0  0  0  0  0  0  0  0  0
   -7.6740    4.6310  -13.8330 C   0  0  0  0  0  0  0  0  0  0  0  0
   -8.4490    3.8810  -13.0170 N   0  0  0  0  0  0  0  0  0  0  0  0
   -8.5100    3.9040  -11.5990 C   0  0  0  0  0  0  0  0  0  0  0  0
   -8.0890    5.0420  -10.9180 C   0  0  0  0  0  0  0  0  0  0  0  0
   -8.1570    5.0950   -9.5370 C   0  0  0  0  0  0  0  0  0  0  0  0
   -8.5650    3.9650   -8.8390 C   0  0  0  0  0  0  0  0  0  0  0  0
   -8.9790    2.8260   -9.5140 C   0  0  0  0  0  0  0  0  0  0  0  0
   -8.9510    2.7720  -10.9010 C   0  0  0  0  0  0  0  0  0  0  0  0
   -9.4380    1.7960   -8.5240 C   0  0  0  0  0  0  0  0  0  0  0  0
   -8.8930    2.3220   -7.2640 N   0  0  0  0  0  0  0  0  0  0  0  0
   -8.7600    3.7790   -7.3600 C   0  0  0  0  0  0  0  0  0  0  0  0
   -7.8890    4.4680  -15.3030 C   0  0  0  0  0  0  0  0  0  0  0  0
   -9.0760    4.0220  -15.8740 C   0  0  0  0  0  0  0  0  0  0  0  0
   -9.2220    3.8960  -17.2510 C   0  0  0  0  0  0  0  0  0  0  0  0
   -8.1770    4.1380  -18.1150 C   0  0  0  0  0  0  0  0  0  0  0  0
   -6.9820    4.5730  -17.5650 C   0  0  0  0  0  0  0  0  0  0  0  0
   -5.7660    4.9200  -18.1370 N   0  0  0  0  0  0  0  0  0  0  0  0
   -4.8810    5.2410  -17.1440 C   0  0  0  0  0  0  0  0  0  0  0  0
   -3.6910    5.5400  -17.2850 O   0  0  0  0  0  0  0  0  0  0  0  0
   -5.5300    5.1170  -15.9520 N   0  0  0  0  0  0  0  0  0  0  0  0
   -6.8270    4.7260  -16.1790 C   0  0  0  0  0  0  0  0  0  0  0  0
  2  1  2  0
  3  2  1  0
  4  3  1  0
  5  4  2  0
  6  5  1  0
  7  6  2  0
  8  7  1  0
  9  4  1  0
  9  8  2  0
 10  8  1  0
 11 10  1  0
 12 11  1  0
 12  7  1  0
 13  2  1  0
 14 13  2  0
 15 14  1  0
 16 15  2  0
 17 16  1  0
 18 17  1  0
 19 18  1  0
 20 19  2  0
 21 19  1  0
 22 17  2  0
 22 21  1  0
 22 13  1  0
M  END
>  <smiles>  (147) 
O=C(Nc1ccc2c(c1)CNC2)c1cccc2[nH]c(=O)[nH]c12

>  <inchikey>  (147) 
HEIBORWUUKURSH-UHFFFAOYSA-N

>  <alias>  (147) 
Z3503a

$$$$
Z3505a
     RDKit          3D

 28 31  0  0  0  0  0  0  0  0999 V2000
   -3.6870    3.3090  -14.6240 C   0  0  0  0  0  0  0  0  0  0  0  0
   -3.6770    2.7270  -13.2230 C   0  0  1  0  0  0  0  0  0  0  0  0
   -2.3570    2.9910  -12.5200 C   0  0  0  0  0  0  0  0  0  0  0  0
   -4.8530    3.2540  -12.4220 C   0  0  0  0  0  0  0  0  0  0  0  0
   -6.0120    2.4180  -12.6890 N   0  0  0  0  0  0  0  0  0  0  0  0
   -7.1000    2.8150  -13.3520 C   0  0  0  0  0  0  0  0  0  0  0  0
   -7.8680    2.0280  -13.8860 O   0  0  0  0  0  0  0  0  0  0  0  0
   -7.3660    4.3370  -13.3610 C   0  0  2  0  0  0  0  0  0  0  0  0
   -8.4080    4.7500  -12.4450 N   0  0  0  0  0  0  0  0  0  0  0  0
   -8.3430    4.5520  -11.0700 C   0  0  0  0  0  0  0  0  0  0  0  0
   -8.0140    5.6370  -10.2460 C   0  0  0  0  0  0  0  0  0  0  0  0
   -7.9850    5.4800   -8.8690 C   0  0  0  0  0  0  0  0  0  0  0  0
   -8.3760    4.2670   -8.3170 C   0  0  0  0  0  0  0  0  0  0  0  0
   -8.7130    3.1910   -9.1300 C   0  0  0  0  0  0  0  0  0  0  0  0
   -8.7190    3.3210  -10.5130 C   0  0  0  0  0  0  0  0  0  0  0  0
   -9.0370    1.9950   -8.2810 C   0  0  0  0  0  0  0  0  0  0  0  0
   -9.1630    2.5840   -6.9390 N   0  0  0  0  0  0  0  0  0  0  0  0
   -8.4030    3.8400   -6.8760 C   0  0  0  0  0  0  0  0  0  0  0  0
   -7.5730    4.8440  -14.7800 C   0  0  0  0  0  0  0  0  0  0  0  0
   -8.5230    4.2970  -15.6440 C   0  0  0  0  0  0  0  0  0  0  0  0
   -8.5850    4.6940  -16.9870 C   0  0  0  0  0  0  0  0  0  0  0  0
   -9.8280    4.0520  -18.0400 Cl  0  0  0  0  0  0  0  0  0  0  0  0
   -7.6910    5.6050  -17.5210 C   0  0  0  0  0  0  0  0  0  0  0  0
   -6.7580    6.1640  -16.6510 C   0  0  0  0  0  0  0  0  0  0  0  0
   -5.7920    7.0880  -16.8640 N   0  0  0  0  0  0  0  0  0  0  0  0
   -5.0540    7.2940  -15.7370 N   0  0  0  0  0  0  0  0  0  0  0  0
   -5.5660    6.5170  -14.7990 C   0  0  0  0  0  0  0  0  0  0  0  0
   -6.6580    5.7750  -15.3070 C   0  0  0  0  0  0  0  0  0  0  0  0
  2  1  1  6
  3  2  1  0
  4  2  1  0
  5  4  1  0
  6  5  1  0
  7  6  2  0
  8  6  1  0
  8  9  1  1
 10  9  1  0
 11 10  2  0
 12 11  1  0
 13 12  2  0
 14 13  1  0
 15 10  1  0
 15 14  2  0
 16 14  1  0
 17 16  1  0
 18 17  1  0
 18 13  1  0
 19  8  1  0
 20 19  2  0
 21 20  1  0
 22 21  1  0
 23 21  2  0
 24 23  1  0
 25 24  1  0
 26 25  1  0
 27 26  2  0
 28 19  1  0
 28 24  2  0
 28 27  1  0
M  END
>  <smiles>  (148) 
CC(C)CNC(=O)[C@H](Nc1ccc2c(c1)CNC2)c1cc(Cl)cc2[nH]ncc12

>  <inchikey>  (148) 
ZYGZLVGHOHVLIF-HXUWFJFHSA-N

>  <alias>  (148) 
Z3505a

$$$$
Z3506a
     RDKit          3D

 27 30  0  0  0  0  0  0  0  0999 V2000
   -2.3750    3.3160  -13.4890 C   0  0  0  0  0  0  0  0  0  0  0  0
   -3.3780    2.1950  -13.6370 C   0  0  0  0  0  0  0  0  0  0  0  0
   -4.4910    2.2920  -12.6190 C   0  0  0  0  0  0  0  0  0  0  0  0
   -5.3640    3.4360  -12.8440 N   0  0  0  0  0  0  0  0  0  0  0  0
   -6.6240    3.2990  -13.2610 C   0  0  0  0  0  0  0  0  0  0  0  0
   -7.1580    2.2170  -13.4800 O   0  0  0  0  0  0  0  0  0  0  0  0
   -7.3990    4.6110  -13.4470 C   0  0  2  0  0  0  0  0  0  0  0  0
   -8.6200    4.5450  -12.6770 N   0  0  0  0  0  0  0  0  0  0  0  0
   -8.5800    4.4570  -11.2920 C   0  0  0  0  0  0  0  0  0  0  0  0
   -8.1270    5.5560  -10.5430 C   0  0  0  0  0  0  0  0  0  0  0  0
   -8.0910    5.4790   -9.1610 C   0  0  0  0  0  0  0  0  0  0  0  0
   -8.4240    4.2770   -8.5430 C   0  0  0  0  0  0  0  0  0  0  0  0
   -8.8550    3.1850   -9.2850 C   0  0  0  0  0  0  0  0  0  0  0  0
   -8.9130    3.2480  -10.6700 C   0  0  0  0  0  0  0  0  0  0  0  0
   -9.1990    2.0540   -8.3610 C   0  0  0  0  0  0  0  0  0  0  0  0
   -8.5380    2.4770   -7.1180 N   0  0  0  0  0  0  0  0  0  0  0  0
   -8.5060    3.9460   -7.0800 C   0  0  0  0  0  0  0  0  0  0  0  0
   -7.5740    4.9130  -14.9270 C   0  0  0  0  0  0  0  0  0  0  0  0
   -8.6110    4.3540  -15.6700 C   0  0  0  0  0  0  0  0  0  0  0  0
   -8.7160    4.5960  -17.0450 C   0  0  0  0  0  0  0  0  0  0  0  0
  -10.0630    3.9360  -17.9400 Cl  0  0  0  0  0  0  0  0  0  0  0  0
   -7.7850    5.3540  -17.7310 C   0  0  0  0  0  0  0  0  0  0  0  0
   -6.7530    5.9170  -16.9850 C   0  0  0  0  0  0  0  0  0  0  0  0
   -5.7230    6.7110  -17.3590 N   0  0  0  0  0  0  0  0  0  0  0  0
   -4.9120    6.9920  -16.3000 N   0  0  0  0  0  0  0  0  0  0  0  0
   -5.4370    6.3900  -15.2470 C   0  0  0  0  0  0  0  0  0  0  0  0
   -6.6100    5.6850  -15.6070 C   0  0  0  0  0  0  0  0  0  0  0  0
  2  1  1  0
  3  2  1  0
  4  3  1  0
  5  4  1  0
  6  5  2  0
  7  5  1  0
  7  8  1  6
  9  8  1  0
 10  9  2  0
 11 10  1  0
 12 11  2  0
 13 12  1  0
 14  9  1  0
 14 13  2  0
 15 13  1  0
 16 15  1  0
 17 16  1  0
 17 12  1  0
 18  7  1  0
 19 18  2  0
 20 19  1  0
 21 20  1  0
 22 20  2  0
 23 22  1  0
 24 23  1  0
 25 24  1  0
 26 25  2  0
 27 18  1  0
 27 23  2  0
 27 26  1  0
M  END
>  <smiles>  (149) 
CCCNC(=O)[C@H](Nc1ccc2c(c1)CNC2)c1cc(Cl)cc2[nH]ncc12

>  <inchikey>  (149) 
SXCDIRRWDDNQMG-LJQANCHMSA-N

>  <alias>  (149) 
Z3506a

$$$$
Z3507a
     RDKit          3D

 23 26  0  0  0  0  0  0  0  0999 V2000
   -9.6970    7.2040  -13.4460 N   0  0  0  0  0  0  0  0  0  0  0  0
   -8.9970    6.2960  -13.4900 C   0  0  0  0  0  0  0  0  0  0  0  0
   -8.0870    5.1150  -13.4920 C   0  0  2  0  0  0  0  0  0  0  0  0
   -7.3860    5.0350  -12.2170 N   0  0  0  0  0  0  0  0  0  0  0  0
   -7.8670    4.2430  -11.1870 C   0  0  0  0  0  0  0  0  0  0  0  0
   -8.3710    2.9770  -11.4960 C   0  0  0  0  0  0  0  0  0  0  0  0
   -8.8820    2.1700  -10.4980 C   0  0  0  0  0  0  0  0  0  0  0  0
   -8.9060    2.6460   -9.1970 C   0  0  0  0  0  0  0  0  0  0  0  0
   -8.4860    3.9350   -8.9010 C   0  0  0  0  0  0  0  0  0  0  0  0
   -7.9580    4.7560   -9.8910 C   0  0  0  0  0  0  0  0  0  0  0  0
   -8.6420    4.1750   -7.4260 C   0  0  0  0  0  0  0  0  0  0  0  0
   -8.7490    2.7940   -6.9240 N   0  0  0  0  0  0  0  0  0  0  0  0
   -9.4220    1.9890   -7.9520 C   0  0  0  0  0  0  0  0  0  0  0  0
   -7.1690    5.1120  -14.7030 C   0  0  0  0  0  0  0  0  0  0  0  0
   -5.8320    5.4640  -14.5990 C   0  0  0  0  0  0  0  0  0  0  0  0
   -4.9970    5.4820  -15.6550 N   0  0  0  0  0  0  0  0  0  0  0  0
   -5.4780    5.2010  -16.8550 C   0  0  0  0  0  0  0  0  0  0  0  0
   -6.8190    4.8130  -17.1070 C   0  0  0  0  0  0  0  0  0  0  0  0
   -7.3120    4.4580  -18.3810 C   0  0  0  0  0  0  0  0  0  0  0  0
   -8.6230    4.1120  -18.5350 C   0  0  0  0  0  0  0  0  0  0  0  0
   -9.4990    4.0930  -17.4380 C   0  0  0  0  0  0  0  0  0  0  0  0
   -9.0440    4.3920  -16.1870 C   0  0  0  0  0  0  0  0  0  0  0  0
   -7.6960    4.7770  -15.9860 C   0  0  0  0  0  0  0  0  0  0  0  0
  2  1  3  0
  3  2  1  1
  4  3  1  0
  5  4  1  0
  6  5  2  0
  7  6  1  0
  8  7  2  0
  9  8  1  0
 10  5  1  0
 10  9  2  0
 11  9  1  0
 12 11  1  0
 13 12  1  0
 13  8  1  0
 14  3  1  0
 15 14  2  0
 16 15  1  0
 17 16  2  0
 18 17  1  0
 19 18  1  0
 20 19  2  0
 21 20  1  0
 22 21  2  0
 23 18  2  0
 23 22  1  0
 23 14  1  0
M  END
>  <smiles>  (150) 
N#C[C@H](Nc1ccc2c(c1)CNC2)c1cncc2ccccc12

>  <inchikey>  (150) 
PZWUNEFUBRWUPG-IBGZPJMESA-N

>  <alias>  (150) 
Z3507a

$$$$
Z3515a
     RDKit          3D

 21 24  0  0  0  0  0  0  0  0999 V2000
   -6.3760    5.4350  -12.5860 O   0  0  0  0  0  0  0  0  0  0  0  0
   -7.2350    4.7540  -13.1300 C   0  0  0  0  0  0  0  0  0  0  0  0
   -8.1530    4.0010  -12.4690 N   0  0  0  0  0  0  0  0  0  0  0  0
   -8.3770    3.9630  -11.0750 C   0  0  0  0  0  0  0  0  0  0  0  0
   -8.2030    5.1160  -10.3110 C   0  0  0  0  0  0  0  0  0  0  0  0
   -8.3770    5.0750   -8.9400 C   0  0  0  0  0  0  0  0  0  0  0  0
   -8.6530    3.8550   -8.3350 C   0  0  0  0  0  0  0  0  0  0  0  0
   -8.8180    2.7040   -9.0920 C   0  0  0  0  0  0  0  0  0  0  0  0
   -8.6620    2.7350  -10.4700 C   0  0  0  0  0  0  0  0  0  0  0  0
   -9.1690    1.5580   -8.1900 C   0  0  0  0  0  0  0  0  0  0  0  0
   -8.7460    2.0810   -6.8830 N   0  0  0  0  0  0  0  0  0  0  0  0
   -8.9170    3.5420   -6.8910 C   0  0  0  0  0  0  0  0  0  0  0  0
   -7.2630    4.6670  -14.6030 C   0  0  0  0  0  0  0  0  0  0  0  0
   -8.2710    4.2340  -15.4170 C   0  0  0  0  0  0  0  0  0  0  0  0
   -7.8610    4.2300  -16.8190 C   0  0  0  0  0  0  0  0  0  0  0  0
   -8.6090    3.7950  -17.8790 N   0  0  0  0  0  0  0  0  0  0  0  0
   -8.0240    3.8570  -19.1030 C   0  0  0  0  0  0  0  0  0  0  0  0
   -6.7480    4.3340  -19.3190 C   0  0  0  0  0  0  0  0  0  0  0  0
   -6.0040    4.7880  -18.2560 C   0  0  0  0  0  0  0  0  0  0  0  0
   -6.5790    4.7340  -16.9910 C   0  0  0  0  0  0  0  0  0  0  0  0
   -5.8360    5.1590  -15.4840 S   0  0  0  0  0  0  0  0  0  0  0  0
  2  1  2  0
  3  2  1  0
  4  3  1  0
  5  4  2  0
  6  5  1  0
  7  6  2  0
  8  7  1  0
  9  4  1  0
  9  8  2  0
 10  8  1  0
 11 10  1  0
 12 11  1  0
 12  7  1  0
 13  2  1  0
 14 13  2  0
 15 14  1  0
 16 15  2  0
 17 16  1  0
 18 17  2  0
 19 18  1  0
 20 19  2  0
 20 15  1  0
 21 20  1  0
 21 13  1  0
M  END
>  <smiles>  (151) 
O=C(Nc1ccc2c(c1)CNC2)c1cc2ncccc2s1

>  <inchikey>  (151) 
YHOOYPROOXBLEU-UHFFFAOYSA-N

>  <alias>  (151) 
Z3515a

$$$$
Z3519a
     RDKit          3D

 22 25  0  0  0  0  0  0  0  0999 V2000
   -6.5830    5.5890  -12.9210 O   0  0  0  0  0  0  0  0  0  0  0  0
   -7.3520    4.8140  -13.4860 C   0  0  0  0  0  0  0  0  0  0  0  0
   -8.2110    4.0070  -12.8220 N   0  0  0  0  0  0  0  0  0  0  0  0
   -8.4030    3.9910  -11.4190 C   0  0  0  0  0  0  0  0  0  0  0  0
   -8.1800    5.1570  -10.6900 C   0  0  0  0  0  0  0  0  0  0  0  0
   -8.3160    5.1640   -9.3140 C   0  0  0  0  0  0  0  0  0  0  0  0
   -8.6110    3.9710   -8.6660 C   0  0  0  0  0  0  0  0  0  0  0  0
   -8.8190    2.8010   -9.3870 C   0  0  0  0  0  0  0  0  0  0  0  0
   -8.6840    2.7830  -10.7680 C   0  0  0  0  0  0  0  0  0  0  0  0
   -9.1310    1.6860   -8.4290 C   0  0  0  0  0  0  0  0  0  0  0  0
   -8.5920    2.2360   -7.1760 N   0  0  0  0  0  0  0  0  0  0  0  0
   -8.8110    3.6920   -7.2050 C   0  0  0  0  0  0  0  0  0  0  0  0
   -7.3050    4.6840  -14.9760 C   0  0  0  0  0  0  0  0  0  0  0  0
   -8.3950    4.2420  -15.7060 C   0  0  0  0  0  0  0  0  0  0  0  0
   -8.3230    4.1630  -17.1270 C   0  0  0  0  0  0  0  0  0  0  0  0
   -9.6750    3.6060  -18.0640 Cl  0  0  0  0  0  0  0  0  0  0  0  0
   -7.2320    4.4710  -17.8220 N   0  0  0  0  0  0  0  0  0  0  0  0
   -6.1630    4.8640  -17.1130 C   0  0  0  0  0  0  0  0  0  0  0  0
   -4.9290    5.1750  -17.6060 N   0  0  0  0  0  0  0  0  0  0  0  0
   -4.1140    5.5120  -16.5490 C   0  0  0  0  0  0  0  0  0  0  0  0
   -4.7930    5.3860  -15.3760 C   0  0  0  0  0  0  0  0  0  0  0  0
   -6.1240    4.9840  -15.7120 C   0  0  0  0  0  0  0  0  0  0  0  0
  2  1  2  0
  3  2  1  0
  4  3  1  0
  5  4  2  0
  6  5  1  0
  7  6  2  0
  8  7  1  0
  9  4  1  0
  9  8  2  0
 10  8  1  0
 11 10  1  0
 12 11  1  0
 12  7  1  0
 13  2  1  0
 14 13  2  0
 15 14  1  0
 16 15  1  0
 17 15  2  0
 18 17  1  0
 19 18  1  0
 20 19  1  0
 21 20  2  0
 22 18  2  0
 22 13  1  0
 22 21  1  0
M  END
>  <smiles>  (152) 
O=C(Nc1ccc2c(c1)CNC2)c1cc(Cl)nc2[nH]ccc12

>  <inchikey>  (152) 
RKXOVTZDXJDKEO-UHFFFAOYSA-N

>  <alias>  (152) 
Z3519a

$$$$
Z3522a
     RDKit          3D

 21 24  0  0  0  0  0  0  0  0999 V2000
   -6.6000    5.7260  -12.5990 O   0  0  0  0  0  0  0  0  0  0  0  0
   -7.3950    4.9560  -13.1280 C   0  0  0  0  0  0  0  0  0  0  0  0
   -8.2350    4.1430  -12.4460 N   0  0  0  0  0  0  0  0  0  0  0  0
   -8.4270    4.0430  -11.0530 C   0  0  0  0  0  0  0  0  0  0  0  0
   -8.2130    5.1430  -10.2270 C   0  0  0  0  0  0  0  0  0  0  0  0
   -8.3460    5.0120   -8.8570 C   0  0  0  0  0  0  0  0  0  0  0  0
   -8.6730    3.7690   -8.3290 C   0  0  0  0  0  0  0  0  0  0  0  0
   -8.8810    2.6730   -9.1530 C   0  0  0  0  0  0  0  0  0  0  0  0
   -8.7330    2.7840  -10.5260 C   0  0  0  0  0  0  0  0  0  0  0  0
   -9.2160    1.4770   -8.3110 C   0  0  0  0  0  0  0  0  0  0  0  0
   -8.7090    1.9040   -6.9980 N   0  0  0  0  0  0  0  0  0  0  0  0
   -8.9080    3.3610   -6.9050 C   0  0  0  0  0  0  0  0  0  0  0  0
   -7.4070    4.7800  -14.6090 C   0  0  0  0  0  0  0  0  0  0  0  0
   -6.2730    5.0460  -15.3650 C   0  0  0  0  0  0  0  0  0  0  0  0
   -6.2860    4.9080  -16.7470 C   0  0  0  0  0  0  0  0  0  0  0  0
   -7.4740    4.4990  -17.3430 C   0  0  0  0  0  0  0  0  0  0  0  0
   -7.7890    4.2350  -19.0070 S   0  0  0  0  0  0  0  0  0  0  0  0
   -9.3910    3.8460  -18.7480 N   0  0  0  0  0  0  0  0  0  0  0  0
   -9.7400    3.8610  -17.4810 C   0  0  0  0  0  0  0  0  0  0  0  0
   -8.6340    4.2450  -16.5930 C   0  0  0  0  0  0  0  0  0  0  0  0
   -8.5970    4.3950  -15.2120 C   0  0  0  0  0  0  0  0  0  0  0  0
  2  1  2  0
  3  2  1  0
  4  3  1  0
  5  4  2  0
  6  5  1  0
  7  6  2  0
  8  7  1  0
  9  4  1  0
  9  8  2  0
 10  8  1  0
 11 10  1  0
 12 11  1  0
 12  7  1  0
 13  2  1  0
 14 13  2  0
 15 14  1  0
 16 15  2  0
 17 16  1  0
 18 17  1  0
 19 18  2  0
 20 19  1  0
 20 16  1  0
 21 20  2  0
 21 13  1  0
M  END
>  <smiles>  (153) 
O=C(Nc1ccc2c(c1)CNC2)c1ccc2sncc2c1

>  <inchikey>  (153) 
DYBYRVCDONHDBA-UHFFFAOYSA-N

>  <alias>  (153) 
Z3522a

$$$$
Z3527a
     RDKit          3D

 22 25  0  0  0  0  0  0  0  0999 V2000
   -6.5820    5.8170  -12.4390 O   0  0  0  0  0  0  0  0  0  0  0  0
   -7.3050    5.0360  -13.0520 C   0  0  0  0  0  0  0  0  0  0  0  0
   -8.1860    4.2040  -12.4520 N   0  0  0  0  0  0  0  0  0  0  0  0
   -8.4120    4.0870  -11.0620 C   0  0  0  0  0  0  0  0  0  0  0  0
   -8.2390    5.1990  -10.2390 C   0  0  0  0  0  0  0  0  0  0  0  0
   -8.4020    5.0830   -8.8710 C   0  0  0  0  0  0  0  0  0  0  0  0
   -8.6630    3.8290   -8.3330 C   0  0  0  0  0  0  0  0  0  0  0  0
   -8.8200    2.7180   -9.1480 C   0  0  0  0  0  0  0  0  0  0  0  0
   -8.6660    2.8200  -10.5220 C   0  0  0  0  0  0  0  0  0  0  0  0
   -9.1670    1.5320   -8.3000 C   0  0  0  0  0  0  0  0  0  0  0  0
   -8.6940    1.9790   -6.9820 N   0  0  0  0  0  0  0  0  0  0  0  0
   -8.9140    3.4300   -6.9080 C   0  0  0  0  0  0  0  0  0  0  0  0
   -7.1640    4.8830  -14.5350 C   0  0  0  0  0  0  0  0  0  0  0  0
   -5.9580    5.2690  -15.1770 C   0  0  0  0  0  0  0  0  0  0  0  0
   -5.8350    5.2000  -16.5340 C   0  0  0  0  0  0  0  0  0  0  0  0
   -6.9140    4.7530  -17.3240 C   0  0  0  0  0  0  0  0  0  0  0  0
   -6.7310    4.6420  -18.6750 N   0  0  0  0  0  0  0  0  0  0  0  0
   -7.7420    4.1660  -19.3770 C   0  0  0  0  0  0  0  0  0  0  0  0
   -9.0090    3.8640  -18.8500 C   0  0  0  0  0  0  0  0  0  0  0  0
   -9.1840    3.9160  -17.5080 C   0  0  0  0  0  0  0  0  0  0  0  0
   -8.1270    4.3830  -16.7000 C   0  0  0  0  0  0  0  0  0  0  0  0
   -8.2370    4.4800  -15.2940 C   0  0  0  0  0  0  0  0  0  0  0  0
  2  1  2  0
  3  2  1  0
  4  3  1  0
  5  4  2  0
  6  5  1  0
  7  6  2  0
  8  7  1  0
  9  4  1  0
  9  8  2  0
 10  8  1  0
 11 10  1  0
 12 11  1  0
 12  7  1  0
 13  2  1  0
 14 13  2  0
 15 14  1  0
 16 15  2  0
 17 16  1  0
 18 17  2  0
 19 18  1  0
 20 19  2  0
 21 20  1  0
 21 16  1  0
 22 21  2  0
 22 13  1  0
M  END
>  <smiles>  (154) 
O=C(Nc1ccc2c(c1)CNC2)c1ccc2ncccc2c1

>  <inchikey>  (154) 
CAOCHPLQOYSVQU-UHFFFAOYSA-N

>  <alias>  (154) 
Z3527a

$$$$
Z3545a
     RDKit          3D

 35 39  0  0  0  0  0  0  0  0999 V2000
   -0.3470    7.8560  -12.5870 C   0  0  0  0  0  0  0  0  0  0  0  0
   -1.0210    6.5260  -12.8250 C   0  0  0  0  0  0  0  0  0  0  0  0
   -1.8560    6.3380  -13.9160 C   0  0  0  0  0  0  0  0  0  0  0  0
   -2.4690    5.1230  -14.1590 C   0  0  0  0  0  0  0  0  0  0  0  0
   -2.2320    4.0670  -13.2950 C   0  0  0  0  0  0  0  0  0  0  0  0
   -3.0540    2.5240  -13.5590 S   0  0  2  0  0  0  0  0  0  0  0  0
   -3.2790    1.9000  -12.2870 O   0  0  0  0  0  0  0  0  0  0  0  0
   -2.3680    1.7830  -14.5700 O   0  0  0  0  0  0  0  0  0  0  0  0
   -4.6420    2.9640  -14.2250 C   0  0  0  0  0  0  0  0  0  0  0  0
   -5.5940    2.8290  -13.1350 N   0  0  0  0  0  0  0  0  0  0  0  0
   -6.8970    2.8560  -13.3940 C   0  0  0  0  0  0  0  0  0  0  0  0
   -7.5460    1.8500  -13.6530 O   0  0  0  0  0  0  0  0  0  0  0  0
   -7.5040    4.2710  -13.4640 C   0  0  2  0  0  0  0  0  0  0  0  0
   -8.6810    4.4000  -12.6400 N   0  0  0  0  0  0  0  0  0  0  0  0
   -8.6100    4.3430  -11.2550 C   0  0  0  0  0  0  0  0  0  0  0  0
   -8.2250    5.4770  -10.5300 C   0  0  0  0  0  0  0  0  0  0  0  0
   -8.2340    5.4460   -9.1450 C   0  0  0  0  0  0  0  0  0  0  0  0
   -8.5650    4.2620   -8.4960 C   0  0  0  0  0  0  0  0  0  0  0  0
   -8.9370    3.1340   -9.2150 C   0  0  0  0  0  0  0  0  0  0  0  0
   -8.9190    3.1450  -10.6010 C   0  0  0  0  0  0  0  0  0  0  0  0
   -9.2790    2.0160   -8.2730 C   0  0  0  0  0  0  0  0  0  0  0  0
   -8.7030    2.5030   -7.0100 N   0  0  0  0  0  0  0  0  0  0  0  0
   -8.6800    3.9750   -7.0260 C   0  0  0  0  0  0  0  0  0  0  0  0
   -7.6770    4.7090  -14.9130 C   0  0  0  0  0  0  0  0  0  0  0  0
   -8.6840    4.2170  -15.7430 C   0  0  0  0  0  0  0  0  0  0  0  0
   -8.7250    4.5640  -17.1010 C   0  0  0  0  0  0  0  0  0  0  0  0
  -10.0090    3.9570  -18.1180 Cl  0  0  0  0  0  0  0  0  0  0  0  0
   -7.7790    5.3900  -17.6810 C   0  0  0  0  0  0  0  0  0  0  0  0
   -6.7780    5.8870  -16.8470 C   0  0  0  0  0  0  0  0  0  0  0  0
   -5.7400    6.7210  -17.1000 N   0  0  0  0  0  0  0  0  0  0  0  0
   -4.9890    6.9320  -15.9820 N   0  0  0  0  0  0  0  0  0  0  0  0
   -5.5710    6.2580  -15.0060 C   0  0  0  0  0  0  0  0  0  0  0  0
   -6.7030    5.5540  -15.4840 C   0  0  0  0  0  0  0  0  0  0  0  0
   -1.4160    4.2300  -12.1850 C   0  0  0  0  0  0  0  0  0  0  0  0
   -0.8150    5.4570  -11.9660 C   0  0  0  0  0  0  0  0  0  0  0  0
  2  1  1  0
  3  2  2  0
  4  3  1  0
  5  4  2  0
  6  5  1  0
  7  6  2  0
  8  6  2  0
  6  9  1  6
 10  9  1  0
 11 10  1  0
 12 11  2  0
 13 11  1  0
 13 14  1  6
 15 14  1  0
 16 15  2  0
 17 16  1  0
 18 17  2  0
 19 18  1  0
 20 15  1  0
 20 19  2  0
 21 19  1  0
 22 21  1  0
 23 22  1  0
 23 18  1  0
 24 13  1  0
 25 24  2  0
 26 25  1  0
 27 26  1  0
 28 26  2  0
 29 28  1  0
 30 29  1  0
 31 30  1  0
 32 31  2  0
 33 24  1  0
 33 29  2  0
 33 32  1  0
 34  5  1  0
 35 34  2  0
 35  2  1  0
M  END
>  <smiles>  (155) 
Cc1ccc(S(=O)(=O)CNC(=O)[C@H](Nc2ccc3c(c2)CNC3)c2cc(Cl)cc3[nH]ncc23)cc1

>  <inchikey>  (155) 
LXTWVGVAFKRLDJ-XMMPIXPASA-N

>  <alias>  (155) 
Z3545a

$$$$
Z3546a
     RDKit          3D

 24 27  0  0  0  0  0  0  0  0999 V2000
   -6.9810    5.8580  -13.1790 O   0  0  0  0  0  0  0  0  0  0  0  0
   -7.6220    4.9480  -13.6940 C   0  0  0  0  0  0  0  0  0  0  0  0
   -8.3270    4.0520  -12.9620 N   0  0  0  0  0  0  0  0  0  0  0  0
   -8.4510    4.0460  -11.5390 C   0  0  0  0  0  0  0  0  0  0  0  0
   -8.2450    5.2170  -10.8080 C   0  0  0  0  0  0  0  0  0  0  0  0
   -8.3590    5.2180   -9.4270 C   0  0  0  0  0  0  0  0  0  0  0  0
   -8.6220    4.0220   -8.7720 C   0  0  0  0  0  0  0  0  0  0  0  0
   -8.8200    2.8510   -9.4900 C   0  0  0  0  0  0  0  0  0  0  0  0
   -8.6980    2.8370  -10.8740 C   0  0  0  0  0  0  0  0  0  0  0  0
   -9.1350    1.7280   -8.5420 C   0  0  0  0  0  0  0  0  0  0  0  0
   -8.6890    2.2820   -7.2570 N   0  0  0  0  0  0  0  0  0  0  0  0
   -8.8010    3.7490   -7.3040 C   0  0  0  0  0  0  0  0  0  0  0  0
   -7.5890    4.7560  -15.1860 C   0  0  0  0  0  0  0  0  0  0  0  0
   -8.7600    4.4000  -15.8630 C   0  0  0  0  0  0  0  0  0  0  0  0
   -8.7630    4.2820  -17.2360 C   0  0  0  0  0  0  0  0  0  0  0  0
  -10.2400    3.8800  -18.0690 Cl  0  0  0  0  0  0  0  0  0  0  0  0
   -7.6160    4.5130  -17.9740 C   0  0  0  0  0  0  0  0  0  0  0  0
   -6.4490    4.8680  -17.3230 C   0  0  0  0  0  0  0  0  0  0  0  0
   -6.4240    4.9590  -15.9330 C   0  0  0  0  0  0  0  0  0  0  0  0
   -5.1940    5.3310  -15.3130 N   0  0  0  0  0  0  0  0  0  0  0  0
   -4.5880    4.7150  -14.2440 C   0  0  0  0  0  0  0  0  0  0  0  0
   -3.4310    5.3680  -14.0320 C   0  0  0  0  0  0  0  0  0  0  0  0
   -3.2770    6.3760  -14.9460 N   0  0  0  0  0  0  0  0  0  0  0  0
   -4.3510    6.3200  -15.6980 C   0  0  0  0  0  0  0  0  0  0  0  0
  2  1  2  0
  3  2  1  0
  4  3  1  0
  5  4  2  0
  6  5  1  0
  7  6  2  0
  8  7  1  0
  9  4  1  0
  9  8  2  0
 10  8  1  0
 11 10  1  0
 12 11  1  0
 12  7  1  0
 13  2  1  0
 14 13  2  0
 15 14  1  0
 16 15  1  0
 17 15  2  0
 18 17  1  0
 19 18  2  0
 19 13  1  0
 20 19  1  0
 21 20  1  0
 22 21  2  0
 23 22  1  0
 24 20  1  0
 24 23  2  0
M  END
>  <smiles>  (156) 
O=C(Nc1ccc2c(c1)CNC2)c1cc(Cl)ccc1-n1ccnc1

>  <inchikey>  (156) 
KYVJOSVEUDQHNK-UHFFFAOYSA-N

>  <alias>  (156) 
Z3546a

$$$$
Z3548a
     RDKit          3D

 23 26  0  0  0  0  0  0  0  0999 V2000
   -5.0630    5.2150  -15.4240 C   0  0  0  0  0  0  0  0  0  0  0  0
   -6.4970    5.3150  -15.9140 C   0  0  1  0  0  0  0  0  0  0  0  0
   -6.7400    4.6460  -17.2680 C   0  0  0  0  0  0  0  0  0  0  0  0
   -8.2540    4.4030  -17.2370 C   0  0  1  0  0  0  0  0  0  0  0  0
   -8.4600    3.8830  -15.8160 C   0  0  0  0  0  0  0  0  0  0  0  0
   -7.4750    4.6430  -15.0240 N   0  0  0  0  0  0  0  0  0  0  0  0
   -7.4250    4.7610  -13.6660 C   0  0  0  0  0  0  0  0  0  0  0  0
   -6.6330    5.5460  -13.1380 O   0  0  0  0  0  0  0  0  0  0  0  0
   -8.2660    3.9670  -12.9400 N   0  0  0  0  0  0  0  0  0  0  0  0
   -8.4090    3.9710  -11.5250 C   0  0  0  0  0  0  0  0  0  0  0  0
   -8.1820    5.1390  -10.7960 C   0  0  0  0  0  0  0  0  0  0  0  0
   -8.3230    5.1520   -9.4170 C   0  0  0  0  0  0  0  0  0  0  0  0
   -8.6140    3.9650   -8.7590 C   0  0  0  0  0  0  0  0  0  0  0  0
   -8.8380    2.7970   -9.4750 C   0  0  0  0  0  0  0  0  0  0  0  0
   -8.7030    2.7740  -10.8580 C   0  0  0  0  0  0  0  0  0  0  0  0
   -9.1950    1.6900   -8.5230 C   0  0  0  0  0  0  0  0  0  0  0  0
   -8.7200    2.2350   -7.2450 N   0  0  0  0  0  0  0  0  0  0  0  0
   -8.8340    3.7030   -7.2960 C   0  0  0  0  0  0  0  0  0  0  0  0
   -9.1450    5.5940  -17.7100 C   0  0  0  0  0  0  0  0  0  0  0  0
   -9.9710    4.6280  -18.5630 C   0  0  1  0  0  0  0  0  0  0  0  0
  -11.1420    4.2720  -18.0100 F   0  0  0  0  0  0  0  0  0  0  0  0
  -10.1920    5.0480  -19.8220 F   0  0  0  0  0  0  0  0  0  0  0  0
   -8.8620    3.5780  -18.4160 C   0  0  0  0  0  0  0  0  0  0  0  0
  2  1  1  1
  3  2  1  0
  4  3  1  6
  5  4  1  0
  6  5  1  0
  6  2  1  0
  7  6  1  0
  8  7  2  0
  9  7  1  0
 10  9  1  0
 11 10  2  0
 12 11  1  0
 13 12  2  0
 14 13  1  0
 15 10  1  0
 15 14  2  0
 16 14  1  0
 17 16  1  0
 18 17  1  0
 18 13  1  0
 19  4  1  0
 20 19  1  0
 20 21  1  1
 22 20  1  0
 23 20  1  0
 23  4  1  0
M  END
>  <smiles>  (157) 
C[C@H]1CC2(CN1C(=O)Nc1ccc3c(c1)CNC3)CC(F)(F)C2

>  <inchikey>  (157) 
AJUFHWAMJUHFGK-NSHDSACASA-N

>  <alias>  (157) 
Z3548a

$$$$
Z3553a
     RDKit          3D

 31 35  0  0  0  0  0  0  0  0999 V2000
   -7.7890    1.8690  -13.7600 O   0  0  0  0  0  0  0  0  0  0  0  0
   -7.0320    2.8030  -13.5330 C   0  0  0  0  0  0  0  0  0  0  0  0
   -5.7510    2.6170  -13.1950 N   0  0  0  0  0  0  0  0  0  0  0  0
   -4.8610    3.6650  -12.7150 C   0  0  0  0  0  0  0  0  0  0  0  0
   -4.2100    3.3260  -11.3790 C   0  0  1  0  0  0  0  0  0  0  0  0
   -5.1840    3.5070  -10.2140 C   0  0  0  0  0  0  0  0  0  0  0  0
   -4.5520    3.1500   -8.8840 C   0  0  0  0  0  0  0  0  0  0  0  0
   -3.2800    2.5120   -9.0140 O   0  0  0  0  0  0  0  0  0  0  0  0
   -3.2980    1.4410   -9.9600 C   0  0  0  0  0  0  0  0  0  0  0  0
   -3.6090    1.9170  -11.3670 C   0  0  0  0  0  0  0  0  0  0  0  0
   -7.5200    4.2610  -13.6780 C   0  0  2  0  0  0  0  0  0  0  0  0
   -8.6770    4.4990  -12.8370 N   0  0  0  0  0  0  0  0  0  0  0  0
   -8.6240    4.4070  -11.4500 C   0  0  0  0  0  0  0  0  0  0  0  0
   -8.1740    5.5060  -10.6990 C   0  0  0  0  0  0  0  0  0  0  0  0
   -8.1370    5.4370   -9.3160 C   0  0  0  0  0  0  0  0  0  0  0  0
   -8.4930    4.2470   -8.6910 C   0  0  0  0  0  0  0  0  0  0  0  0
   -8.9350    3.1560   -9.4290 C   0  0  0  0  0  0  0  0  0  0  0  0
   -9.0000    3.2140  -10.8140 C   0  0  0  0  0  0  0  0  0  0  0  0
   -9.3030    2.0380   -8.4940 C   0  0  0  0  0  0  0  0  0  0  0  0
   -8.6180    2.4490   -7.2620 N   0  0  0  0  0  0  0  0  0  0  0  0
   -8.5800    3.9200   -7.2290 C   0  0  0  0  0  0  0  0  0  0  0  0
   -7.7070    4.6000  -15.1510 C   0  0  0  0  0  0  0  0  0  0  0  0
   -8.8460    4.2260  -15.8660 C   0  0  0  0  0  0  0  0  0  0  0  0
   -8.9270    4.4440  -17.2500 C   0  0  0  0  0  0  0  0  0  0  0  0
  -10.3540    3.9670  -18.1410 Cl  0  0  0  0  0  0  0  0  0  0  0  0
   -7.8880    5.0040  -17.9720 C   0  0  0  0  0  0  0  0  0  0  0  0
   -6.7700    5.4090  -17.2530 C   0  0  0  0  0  0  0  0  0  0  0  0
   -5.6330    6.0150  -17.6600 N   0  0  0  0  0  0  0  0  0  0  0  0
   -4.7830    6.2180  -16.6150 N   0  0  0  0  0  0  0  0  0  0  0  0
   -5.3810    5.7340  -15.5420 C   0  0  0  0  0  0  0  0  0  0  0  0
   -6.6540    5.2120  -15.8670 C   0  0  0  0  0  0  0  0  0  0  0  0
  2  1  2  0
  3  2  1  0
  4  3  1  0
  5  4  1  6
  6  5  1  0
  7  6  1  0
  8  7  1  0
  9  8  1  0
 10  5  1  0
 10  9  1  0
 11  2  1  0
 11 12  1  1
 13 12  1  0
 14 13  2  0
 15 14  1  0
 16 15  2  0
 17 16  1  0
 18 13  1  0
 18 17  2  0
 19 17  1  0
 20 19  1  0
 21 20  1  0
 21 16  1  0
 22 11  1  0
 23 22  2  0
 24 23  1  0
 25 24  1  0
 26 24  2  0
 27 26  1  0
 28 27  1  0
 29 28  1  0
 30 29  2  0
 31 27  2  0
 31 22  1  0
 31 30  1  0
M  END
>  <smiles>  (158) 
O=C(NCC1CCOCC1)[C@H](Nc1ccc2c(c1)CNC2)c1cc(Cl)cc2[nH]ncc12

>  <inchikey>  (158) 
OJYCZKWLVHSYSN-JOCHJYFZSA-N

>  <alias>  (158) 
Z3553a

$$$$
Z3556a
     RDKit          3D

 23 26  0  0  0  0  0  0  0  0999 V2000
   -9.3870    3.9810  -18.1180 C   0  0  0  0  0  0  0  0  0  0  0  0
   -8.2270    4.3640  -17.2500 C   0  0  0  0  0  0  0  0  0  0  0  0
   -8.3710    4.4780  -15.8420 C   0  0  0  0  0  0  0  0  0  0  0  0
   -7.2890    4.8350  -15.0490 C   0  0  0  0  0  0  0  0  0  0  0  0
   -7.4070    5.0230  -13.5670 C   0  0  0  0  0  0  0  0  0  0  0  0
   -6.7040    5.8660  -13.0180 O   0  0  0  0  0  0  0  0  0  0  0  0
   -8.2390    4.1900  -12.8930 N   0  0  0  0  0  0  0  0  0  0  0  0
   -8.4390    4.1450  -11.4850 C   0  0  0  0  0  0  0  0  0  0  0  0
   -8.2730    5.3160  -10.7470 C   0  0  0  0  0  0  0  0  0  0  0  0
   -8.3920    5.2990   -9.3670 C   0  0  0  0  0  0  0  0  0  0  0  0
   -8.6390    4.0900   -8.7280 C   0  0  0  0  0  0  0  0  0  0  0  0
   -8.8130    2.9210   -9.4570 C   0  0  0  0  0  0  0  0  0  0  0  0
   -8.6780    2.9230  -10.8410 C   0  0  0  0  0  0  0  0  0  0  0  0
   -9.0780    1.7840   -8.5100 C   0  0  0  0  0  0  0  0  0  0  0  0
   -8.6080    2.3420   -7.2300 N   0  0  0  0  0  0  0  0  0  0  0  0
   -8.8270    3.7980   -7.2650 C   0  0  0  0  0  0  0  0  0  0  0  0
   -6.0460    5.0240  -15.7140 C   0  0  0  0  0  0  0  0  0  0  0  0
   -4.7130    5.3570  -15.3670 C   0  0  0  0  0  0  0  0  0  0  0  0
   -3.9240    5.4070  -16.4230 N   0  0  0  0  0  0  0  0  0  0  0  0
   -4.7220    5.0970  -17.5010 N   0  0  0  0  0  0  0  0  0  0  0  0
   -4.1550    5.0330  -18.8520 C   0  0  0  0  0  0  0  0  0  0  0  0
   -6.0150    4.8880  -17.1050 C   0  0  0  0  0  0  0  0  0  0  0  0
   -7.0660    4.5530  -17.8750 N   0  0  0  0  0  0  0  0  0  0  0  0
  2  1  1  0
  3  2  2  0
  4  3  1  0
  5  4  1  0
  6  5  2  0
  7  5  1  0
  8  7  1  0
  9  8  2  0
 10  9  1  0
 11 10  2  0
 12 11  1  0
 13  8  1  0
 13 12  2  0
 14 12  1  0
 15 14  1  0
 16 15  1  0
 16 11  1  0
 17  4  2  0
 18 17  1  0
 19 18  2  0
 20 19  1  0
 21 20  1  0
 22 17  1  0
 22 20  1  0
 23 22  2  0
 23  2  1  0
M  END
>  <smiles>  (159) 
Cc1cc(C(=O)Nc2ccc3c(c2)CNC3)c2cnn(C)c2n1

>  <inchikey>  (159) 
DPWWBACUAHQOAR-UHFFFAOYSA-N

>  <alias>  (159) 
Z3556a

$$$$
Z3559a
     RDKit          3D

 25 29  0  0  0  0  0  0  0  0999 V2000
   -4.8480    5.4580  -19.1380 C   0  0  0  0  0  0  0  0  0  0  0  0
   -5.2130    5.4330  -17.7310 N   0  0  0  0  0  0  0  0  0  0  0  0
   -4.3320    5.8450  -16.7730 N   0  0  0  0  0  0  0  0  0  0  0  0
   -4.9130    5.6620  -15.6050 C   0  0  0  0  0  0  0  0  0  0  0  0
   -6.2250    5.1560  -15.7790 C   0  0  0  0  0  0  0  0  0  0  0  0
   -7.3170    4.7560  -14.9500 C   0  0  0  0  0  0  0  0  0  0  0  0
   -7.3130    4.9410  -13.4660 C   0  0  0  0  0  0  0  0  0  0  0  0
   -6.5110    5.7150  -12.9490 O   0  0  0  0  0  0  0  0  0  0  0  0
   -8.1840    4.1820  -12.7600 N   0  0  0  0  0  0  0  0  0  0  0  0
   -8.3470    4.1420  -11.3540 C   0  0  0  0  0  0  0  0  0  0  0  0
   -8.0400    5.2560  -10.5750 C   0  0  0  0  0  0  0  0  0  0  0  0
   -8.1830    5.2100   -9.1970 C   0  0  0  0  0  0  0  0  0  0  0  0
   -8.5500    4.0110   -8.6010 C   0  0  0  0  0  0  0  0  0  0  0  0
   -8.8400    2.8920   -9.3720 C   0  0  0  0  0  0  0  0  0  0  0  0
   -8.7120    2.9290  -10.7540 C   0  0  0  0  0  0  0  0  0  0  0  0
   -9.2500    1.7620   -8.4740 C   0  0  0  0  0  0  0  0  0  0  0  0
   -8.7490    2.2250   -7.1730 N   0  0  0  0  0  0  0  0  0  0  0  0
   -8.7940    3.6940   -7.1520 C   0  0  0  0  0  0  0  0  0  0  0  0
   -8.4560    4.2990  -15.5960 C   0  0  0  0  0  0  0  0  0  0  0  0
   -8.4860    4.1850  -17.0050 C   0  0  0  0  0  0  0  0  0  0  0  0
   -9.6810    3.6510  -17.7020 C   0  0  1  0  0  0  0  0  0  0  0  0
   -9.9290    3.9710  -19.1400 C   0  0  0  0  0  0  0  0  0  0  0  0
   -9.5130    2.6140  -18.7610 C   0  0  0  0  0  0  0  0  0  0  0  0
   -7.4530    4.5220  -17.7720 N   0  0  0  0  0  0  0  0  0  0  0  0
   -6.3650    5.0160  -17.1690 C   0  0  0  0  0  0  0  0  0  0  0  0
  2  1  1  0
  3  2  1  0
  4  3  2  0
  5  4  1  0
  6  5  2  0
  7  6  1  0
  8  7  2  0
  9  7  1  0
 10  9  1  0
 11 10  2  0
 12 11  1  0
 13 12  2  0
 14 13  1  0
 15 10  1  0
 15 14  2  0
 16 14  1  0
 17 16  1  0
 18 17  1  0
 18 13  1  0
 19  6  1  0
 20 19  2  0
 21 20  1  6
 22 21  1  0
 23 22  1  0
 23 21  1  0
 24 20  1  0
 25 24  2  0
 25  5  1  0
 25  2  1  0
M  END
>  <smiles>  (160) 
Cn1ncc2c(C(=O)Nc3ccc4c(c3)CNC4)cc(C3CC3)nc21

>  <inchikey>  (160) 
LNYJGWJCZZHSQQ-UHFFFAOYSA-N

>  <alias>  (160) 
Z3559a

$$$$
Z3561a
     RDKit          3D

 30 34  0  0  0  0  0  0  0  0999 V2000
   -5.6130    4.6240  -12.6420 O   0  0  0  0  0  0  0  0  0  0  0  0
   -6.4610    4.1480  -13.3890 C   0  0  0  0  0  0  0  0  0  0  0  0
   -6.4320    2.8990  -13.8590 N   0  0  0  0  0  0  0  0  0  0  0  0
   -5.4980    1.8880  -13.4110 C   0  0  0  0  0  0  0  0  0  0  0  0
   -4.0380    2.2390  -13.6660 C   0  0  1  0  0  0  0  0  0  0  0  0
   -3.6100    2.9350  -14.9670 C   0  0  0  0  0  0  0  0  0  0  0  0
   -2.7150    4.0600  -14.5130 C   0  0  0  0  0  0  0  0  0  0  0  0
   -2.3550    3.6160  -13.1480 C   0  0  0  0  0  0  0  0  0  0  0  0
   -3.5510    3.0650  -12.6190 O   0  0  0  0  0  0  0  0  0  0  0  0
   -7.6900    4.9630  -13.8130 C   0  0  2  0  0  0  0  0  0  0  0  0
   -8.7950    4.4090  -13.0600 N   0  0  0  0  0  0  0  0  0  0  0  0
   -8.7160    4.4430  -11.6710 C   0  0  0  0  0  0  0  0  0  0  0  0
   -8.3100    5.6320  -11.0330 C   0  0  0  0  0  0  0  0  0  0  0  0
   -8.1520    5.6720   -9.6590 C   0  0  0  0  0  0  0  0  0  0  0  0
   -8.3240    4.5050   -8.9290 C   0  0  0  0  0  0  0  0  0  0  0  0
   -8.6970    3.3220   -9.5520 C   0  0  0  0  0  0  0  0  0  0  0  0
   -8.8540    3.2600  -10.9310 C   0  0  0  0  0  0  0  0  0  0  0  0
   -8.8560    2.2480   -8.5140 C   0  0  0  0  0  0  0  0  0  0  0  0
   -8.1070    2.8220   -7.3850 N   0  0  0  0  0  0  0  0  0  0  0  0
   -8.2480    4.2840   -7.4460 C   0  0  0  0  0  0  0  0  0  0  0  0
   -7.7710    4.9890  -15.3350 C   0  0  0  0  0  0  0  0  0  0  0  0
   -8.8640    4.4840  -16.0400 C   0  0  0  0  0  0  0  0  0  0  0  0
   -8.8840    4.5120  -17.4410 C   0  0  0  0  0  0  0  0  0  0  0  0
  -10.2610    3.8760  -18.3050 Cl  0  0  0  0  0  0  0  0  0  0  0  0
   -7.8340    5.0130  -18.1860 C   0  0  0  0  0  0  0  0  0  0  0  0
   -6.7520    5.5330  -17.4830 C   0  0  0  0  0  0  0  0  0  0  0  0
   -5.6020    6.0890  -17.9250 N   0  0  0  0  0  0  0  0  0  0  0  0
   -4.8010    6.4480  -16.8830 N   0  0  0  0  0  0  0  0  0  0  0  0
   -5.4510    6.1310  -15.7770 C   0  0  0  0  0  0  0  0  0  0  0  0
   -6.7010    5.5370  -16.0800 C   0  0  0  0  0  0  0  0  0  0  0  0
  2  1  2  0
  3  2  1  0
  4  3  1  0
  5  4  1  6
  6  5  1  0
  7  6  1  0
  8  7  1  0
  9  8  1  0
  9  5  1  0
 10  2  1  0
 10 11  1  1
 12 11  1  0
 13 12  2  0
 14 13  1  0
 15 14  2  0
 16 15  1  0
 17 12  1  0
 17 16  2  0
 18 16  1  0
 19 18  1  0
 20 19  1  0
 20 15  1  0
 21 10  1  0
 22 21  2  0
 23 22  1  0
 24 23  1  0
 25 23  2  0
 26 25  1  0
 27 26  1  0
 28 27  1  0
 29 28  2  0
 30 21  1  0
 30 26  2  0
 30 29  1  0
M  END
>  <smiles>  (161) 
O=C(NC[C@H]1CCCO1)[C@H](Nc1ccc2c(c1)CNC2)c1cc(Cl)cc2[nH]ncc12

>  <inchikey>  (161) 
PQBVVKPVJVKBHR-DYESRHJHSA-N

>  <alias>  (161) 
Z3561a

$$$$
Z3596a
     RDKit          3D

 22 25  0  0  0  0  0  0  0  0999 V2000
   -6.9540    5.7010  -13.2730 O   0  0  0  0  0  0  0  0  0  0  0  0
   -7.6370    4.7900  -13.7360 C   0  0  0  0  0  0  0  0  0  0  0  0
   -7.7440    4.5910  -15.2190 C   0  0  0  0  0  0  0  0  0  0  0  0
   -6.6560    4.8360  -16.0680 C   0  0  0  0  0  0  0  0  0  0  0  0
   -5.2200    5.1650  -15.7850 C   0  0  0  0  0  0  0  0  0  0  0  0
   -8.9640    4.2140  -15.7810 C   0  0  0  0  0  0  0  0  0  0  0  0
   -9.1020    4.1120  -17.1620 C   0  0  0  0  0  0  0  0  0  0  0  0
   -8.0310    4.3730  -18.0090 C   0  0  0  0  0  0  0  0  0  0  0  0
   -6.8080    4.7220  -17.4460 C   0  0  0  0  0  0  0  0  0  0  0  0
   -5.5680    4.8950  -18.0640 N   0  0  0  0  0  0  0  0  0  0  0  0
   -4.5770    5.1000  -17.1540 C   0  0  0  0  0  0  0  0  0  0  0  0
   -3.3760    5.1350  -17.4060 O   0  0  0  0  0  0  0  0  0  0  0  0
   -8.3410    3.9200  -12.9670 N   0  0  0  0  0  0  0  0  0  0  0  0
   -8.4160    3.8910  -11.5510 C   0  0  0  0  0  0  0  0  0  0  0  0
   -8.7550    2.7190  -10.8770 C   0  0  0  0  0  0  0  0  0  0  0  0
   -8.8610    2.7180   -9.4880 C   0  0  0  0  0  0  0  0  0  0  0  0
   -9.2470    1.6030   -8.5610 C   0  0  0  0  0  0  0  0  0  0  0  0
   -8.8820    2.1740   -7.2660 N   0  0  0  0  0  0  0  0  0  0  0  0
   -8.7700    3.6310   -7.2990 C   0  0  0  0  0  0  0  0  0  0  0  0
   -8.6140    3.8780   -8.7700 C   0  0  0  0  0  0  0  0  0  0  0  0
   -8.2700    5.0440   -9.4440 C   0  0  0  0  0  0  0  0  0  0  0  0
   -8.1730    5.0520  -10.8250 C   0  0  0  0  0  0  0  0  0  0  0  0
  2  1  2  0
  3  2  1  0
  4  3  2  0
  5  4  1  0
  6  3  1  0
  7  6  2  0
  8  7  1  0
  9  8  2  0
  9  4  1  0
 10  9  1  0
 11 10  1  0
 11  5  1  0
 12 11  2  0
 13  2  1  0
 14 13  1  0
 15 14  2  0
 16 15  1  0
 17 16  1  0
 18 17  1  0
 19 18  1  0
 20 19  1  0
 20 16  2  0
 21 20  1  0
 22 14  1  0
 22 21  2  0
M  END
>  <smiles>  (162) 
O=C1Cc2c(cccc2C(=O)Nc2ccc3c(c2)CNC3)N1

>  <inchikey>  (162) 
OZAKPONUOMDABD-UHFFFAOYSA-N

>  <alias>  (162) 
Z3596a

$$$$
Z3617a
     RDKit          3D

 30 35  0  0  0  0  0  0  0  0999 V2000
  -10.3950    3.9530  -17.9990 Cl  0  0  0  0  0  0  0  0  0  0  0  0
   -8.8660    4.2750  -17.2370 C   0  0  0  0  0  0  0  0  0  0  0  0
   -8.7910    4.2710  -15.8530 C   0  0  0  0  0  0  0  0  0  0  0  0
   -7.7730    4.5560  -18.0340 C   0  0  0  0  0  0  0  0  0  0  0  0
   -6.5670    4.8560  -17.4160 C   0  0  0  0  0  0  0  0  0  0  0  0
   -6.4620    4.8570  -16.0240 C   0  0  0  0  0  0  0  0  0  0  0  0
   -5.1490    5.1440  -15.6590 N   0  0  0  0  0  0  0  0  0  0  0  0
   -4.5080    5.3170  -16.8050 C   0  0  0  0  0  0  0  0  0  0  0  0
   -3.0920    5.6600  -16.9040 C   0  0  0  0  0  0  0  0  0  0  0  0
   -2.2610    5.6170  -15.8530 N   0  0  0  0  0  0  0  0  0  0  0  0
   -1.0490    6.0340  -16.3590 N   0  0  0  0  0  0  0  0  0  0  0  0
   -1.1120    6.3310  -17.6670 C   0  0  0  0  0  0  0  0  0  0  0  0
    0.0290    6.8600  -18.4530 C   0  0  1  0  0  0  0  0  0  0  0  0
    0.3080    6.3560  -19.8490 C   0  0  0  0  0  0  0  0  0  0  0  0
   -0.2090    7.7360  -19.6610 C   0  0  0  0  0  0  0  0  0  0  0  0
   -2.4270    6.0890  -18.0630 C   0  0  0  0  0  0  0  0  0  0  0  0
   -5.3090    5.1560  -17.8930 N   0  0  0  0  0  0  0  0  0  0  0  0
   -7.5810    4.5730  -15.2280 C   0  0  0  0  0  0  0  0  0  0  0  0
   -7.4740    4.6390  -13.7330 C   0  0  0  0  0  0  0  0  0  0  0  0
   -6.5250    5.2120  -13.2010 O   0  0  0  0  0  0  0  0  0  0  0  0
   -8.4610    4.0380  -13.0230 N   0  0  0  0  0  0  0  0  0  0  0  0
   -8.5630    3.9940  -11.6060 C   0  0  0  0  0  0  0  0  0  0  0  0
   -8.8160    2.8010  -10.9330 C   0  0  0  0  0  0  0  0  0  0  0  0
   -8.8710    2.7790   -9.5430 C   0  0  0  0  0  0  0  0  0  0  0  0
   -9.1620    1.6320   -8.6200 C   0  0  0  0  0  0  0  0  0  0  0  0
   -8.9340    2.2210   -7.3070 N   0  0  0  0  0  0  0  0  0  0  0  0
   -8.7860    3.6800   -7.3460 C   0  0  0  0  0  0  0  0  0  0  0  0
   -8.6620    3.9430   -8.8180 C   0  0  0  0  0  0  0  0  0  0  0  0
   -8.4050    5.1330   -9.4890 C   0  0  0  0  0  0  0  0  0  0  0  0
   -8.3630    5.1620  -10.8720 C   0  0  0  0  0  0  0  0  0  0  0  0
  2  1  1  0
  3  2  2  0
  4  2  1  0
  5  4  2  0
  6  5  1  0
  7  6  1  0
  8  7  2  0
  9  8  1  0
 10  9  2  0
 11 10  1  0
 12 11  1  0
 13 12  1  6
 14 13  1  0
 15 14  1  0
 15 13  1  0
 16 12  2  0
 16  9  1  0
 17  5  1  0
 17  8  1  0
 18  6  2  0
 18  3  1  0
 19 18  1  0
 20 19  2  0
 21 19  1  0
 22 21  1  0
 23 22  2  0
 24 23  1  0
 25 24  1  0
 26 25  1  0
 27 26  1  0
 28 27  1  0
 28 24  2  0
 29 28  1  0
 30 22  1  0
 30 29  2  0
M  END
>  <smiles>  (163) 
O=C(Nc1ccc2c(c1)CNC2)c1cc(Cl)cc2[nH]c(-c3cc(C4CC4)[nH]n3)nc12

>  <inchikey>  (163) 
CKXRSHDOYIAZDF-UHFFFAOYSA-N

>  <alias>  (163) 
Z3617a

$$$$
Z3622a
     RDKit          3D

 28 32  0  0  0  0  0  0  0  0999 V2000
  -10.4440    4.0130  -17.6120 F   0  0  0  0  0  0  0  0  0  0  0  0
   -9.2060    4.2320  -17.0970 C   0  0  0  0  0  0  0  0  0  0  0  0
   -9.0670    4.2750  -15.7260 C   0  0  0  0  0  0  0  0  0  0  0  0
   -8.1760    4.4550  -17.9770 C   0  0  0  0  0  0  0  0  0  0  0  0
   -6.9290    4.7640  -17.4480 C   0  0  0  0  0  0  0  0  0  0  0  0
   -6.7450    4.8350  -16.0660 C   0  0  0  0  0  0  0  0  0  0  0  0
   -5.4110    5.1390  -15.7940 N   0  0  0  0  0  0  0  0  0  0  0  0
   -4.8310    5.2420  -16.9890 C   0  0  0  0  0  0  0  0  0  0  0  0
   -3.4050    5.5420  -17.2060 C   0  0  0  0  0  0  0  0  0  0  0  0
   -2.8470    5.4200  -18.4750 C   0  0  0  0  0  0  0  0  0  0  0  0
   -1.5230    5.7620  -18.6960 C   0  0  0  0  0  0  0  0  0  0  0  0
   -0.7400    6.2190  -17.6580 C   0  0  0  0  0  0  0  0  0  0  0  0
   -1.2780    6.3310  -16.3930 C   0  0  0  0  0  0  0  0  0  0  0  0
   -2.6020    5.9950  -16.1630 C   0  0  0  0  0  0  0  0  0  0  0  0
   -5.6990    5.0260  -18.0100 N   0  0  0  0  0  0  0  0  0  0  0  0
   -7.8180    4.6010  -15.1950 C   0  0  0  0  0  0  0  0  0  0  0  0
   -7.6910    4.7830  -13.7120 C   0  0  0  0  0  0  0  0  0  0  0  0
   -6.9650    5.6600  -13.2480 O   0  0  0  0  0  0  0  0  0  0  0  0
   -8.4290    3.9400  -12.9460 N   0  0  0  0  0  0  0  0  0  0  0  0
   -8.5150    3.9250  -11.5310 C   0  0  0  0  0  0  0  0  0  0  0  0
   -8.7560    2.7320  -10.8520 C   0  0  0  0  0  0  0  0  0  0  0  0
   -8.8690    2.7290   -9.4650 C   0  0  0  0  0  0  0  0  0  0  0  0
   -9.2120    1.6010   -8.5370 C   0  0  0  0  0  0  0  0  0  0  0  0
   -8.8600    2.1910   -7.2520 N   0  0  0  0  0  0  0  0  0  0  0  0
   -8.8260    3.6490   -7.2790 C   0  0  0  0  0  0  0  0  0  0  0  0
   -8.7070    3.9080   -8.7510 C   0  0  0  0  0  0  0  0  0  0  0  0
   -8.4630    5.0970   -9.4310 C   0  0  0  0  0  0  0  0  0  0  0  0
   -8.3760    5.1090  -10.8110 C   0  0  0  0  0  0  0  0  0  0  0  0
  2  1  1  0
  3  2  2  0
  4  2  1  0
  5  4  2  0
  6  5  1  0
  7  6  1  0
  8  7  2  0
  9  8  1  0
 10  9  2  0
 11 10  1  0
 12 11  2  0
 13 12  1  0
 14 13  2  0
 14  9  1  0
 15  5  1  0
 15  8  1  0
 16  6  2  0
 16  3  1  0
 17 16  1  0
 18 17  2  0
 19 17  1  0
 20 19  1  0
 21 20  2  0
 22 21  1  0
 23 22  1  0
 24 23  1  0
 25 24  1  0
 26 25  1  0
 26 22  2  0
 27 26  1  0
 28 20  1  0
 28 27  2  0
M  END
>  <smiles>  (164) 
O=C(Nc1ccc2c(c1)CNC2)c1cc(F)cc2[nH]c(-c3ccccc3)nc12

>  <inchikey>  (164) 
DWEGWCUYPPIYDT-UHFFFAOYSA-N

>  <alias>  (164) 
Z3622a

$$$$
Z3646a
     RDKit          3D

 24 27  0  0  0  0  0  0  0  0999 V2000
  -10.4350    3.7990  -17.7150 F   0  0  0  0  0  0  0  0  0  0  0  0
   -9.2040    4.0830  -17.2100 C   0  0  0  0  0  0  0  0  0  0  0  0
   -9.0440    4.0900  -15.8400 C   0  0  0  0  0  0  0  0  0  0  0  0
   -8.2050    4.3890  -18.0970 C   0  0  0  0  0  0  0  0  0  0  0  0
   -6.9760    4.7540  -17.5660 C   0  0  0  0  0  0  0  0  0  0  0  0
   -6.7430    4.8050  -16.1770 C   0  0  0  0  0  0  0  0  0  0  0  0
   -5.3940    5.2180  -16.0630 C   0  0  0  0  0  0  0  0  0  0  0  0
   -4.8450    5.4070  -17.2470 N   0  0  0  0  0  0  0  0  0  0  0  0
   -5.8150    5.1200  -18.1640 N   0  0  0  0  0  0  0  0  0  0  0  0
   -7.8030    4.4630  -15.3130 C   0  0  0  0  0  0  0  0  0  0  0  0
   -7.6300    4.5370  -13.8220 C   0  0  0  0  0  0  0  0  0  0  0  0
   -6.6490    5.0920  -13.3310 O   0  0  0  0  0  0  0  0  0  0  0  0
   -8.6040    3.9700  -13.0660 N   0  0  0  0  0  0  0  0  0  0  0  0
   -8.6440    3.9100  -11.6420 C   0  0  0  0  0  0  0  0  0  0  0  0
   -8.5920    5.1170  -10.9160 C   0  0  0  0  0  0  0  0  0  0  0  0
   -8.5900    6.3790  -11.6070 C   0  0  0  0  0  0  0  0  0  0  0  0
   -8.5800    7.3640  -12.1820 N   0  0  0  0  0  0  0  0  0  0  0  0
   -8.7330    2.7050  -10.9370 C   0  0  0  0  0  0  0  0  0  0  0  0
   -8.7930    2.7010   -9.5430 C   0  0  0  0  0  0  0  0  0  0  0  0
   -9.0480    1.5570   -8.6080 C   0  0  0  0  0  0  0  0  0  0  0  0
   -8.9510    2.2010   -7.3010 N   0  0  0  0  0  0  0  0  0  0  0  0
   -8.7890    3.6450   -7.3620 C   0  0  0  0  0  0  0  0  0  0  0  0
   -8.7080    3.8920   -8.8400 C   0  0  0  0  0  0  0  0  0  0  0  0
   -8.5970    5.0910   -9.5250 C   0  0  0  0  0  0  0  0  0  0  0  0
  2  1  1  0
  3  2  2  0
  4  2  1  0
  5  4  2  0
  6  5  1  0
  7  6  1  0
  8  7  2  0
  9  5  1  0
  9  8  1  0
 10  6  2  0
 10  3  1  0
 11 10  1  0
 12 11  2  0
 13 11  1  0
 14 13  1  0
 15 14  2  0
 16 15  1  0
 17 16  3  0
 18 14  1  0
 19 18  2  0
 20 19  1  0
 21 20  1  0
 22 21  1  0
 23 22  1  0
 23 19  1  0
 24 15  1  0
 24 23  2  0
M  END
>  <smiles>  (165) 
N#Cc1cc2c(cc1NC(=O)c1cc(F)cc3[nH]ncc13)CNC2

>  <inchikey>  (165) 
PVNIINDFNOMXKR-UHFFFAOYSA-N

>  <alias>  (165) 
Z3646a

$$$$
Z3647a
     RDKit          3D

 30 34  0  0  0  0  0  0  0  0999 V2000
  -10.4600    3.8540  -17.6110 F   0  0  0  0  0  0  0  0  0  0  0  0
   -9.2180    4.1470  -17.1430 C   0  0  0  0  0  0  0  0  0  0  0  0
   -9.0420    4.2560  -15.7810 C   0  0  0  0  0  0  0  0  0  0  0  0
   -8.2160    4.3410  -18.0600 C   0  0  0  0  0  0  0  0  0  0  0  0
   -6.9650    4.6840  -17.5660 C   0  0  0  0  0  0  0  0  0  0  0  0
   -6.7160    4.8270  -16.1870 C   0  0  0  0  0  0  0  0  0  0  0  0
   -5.3560    5.2090  -16.1160 C   0  0  0  0  0  0  0  0  0  0  0  0
   -4.8120    5.2900  -17.3150 N   0  0  0  0  0  0  0  0  0  0  0  0
   -5.7980    4.9640  -18.1990 N   0  0  0  0  0  0  0  0  0  0  0  0
   -7.7770    4.5930  -15.2940 C   0  0  0  0  0  0  0  0  0  0  0  0
   -7.5590    4.6820  -13.8090 C   0  0  0  0  0  0  0  0  0  0  0  0
   -6.5310    5.1800  -13.3570 O   0  0  0  0  0  0  0  0  0  0  0  0
   -8.5390    4.1660  -13.0230 N   0  0  0  0  0  0  0  0  0  0  0  0
   -8.5550    4.1180  -11.6040 C   0  0  0  0  0  0  0  0  0  0  0  0
   -8.2720    5.2690  -10.8690 C   0  0  0  0  0  0  0  0  0  0  0  0
   -8.3040    5.2370   -9.4740 C   0  0  0  0  0  0  0  0  0  0  0  0
   -7.9560    6.4920   -8.7480 C   0  0  0  0  0  0  0  0  0  0  0  0
   -8.7600    7.6900   -9.1910 C   0  0  0  0  0  0  0  0  0  0  0  0
   -8.8440    8.8210   -8.1550 C   0  0  0  0  0  0  0  0  0  0  0  0
   -7.2540    9.2500   -7.5150 S   0  0  1  0  0  0  0  0  0  0  0  0
   -6.4010    9.6630   -8.5980 O   0  0  0  0  0  0  0  0  0  0  0  0
   -7.4190   10.1480   -6.4020 O   0  0  0  0  0  0  0  0  0  0  0  0
   -6.6800    7.6910   -6.9080 C   0  0  0  0  0  0  0  0  0  0  0  0
   -7.0220    6.5190   -7.7630 C   0  0  0  0  0  0  0  0  0  0  0  0
   -8.6330    4.0450   -8.8110 C   0  0  0  0  0  0  0  0  0  0  0  0
   -8.8120    3.7860   -7.3450 C   0  0  0  0  0  0  0  0  0  0  0  0
   -8.9280    2.3380   -7.3210 N   0  0  0  0  0  0  0  0  0  0  0  0
   -9.1990    1.7530   -8.6250 C   0  0  0  0  0  0  0  0  0  0  0  0
   -8.8970    2.8980   -9.5460 C   0  0  0  0  0  0  0  0  0  0  0  0
   -8.8570    2.9330  -10.9370 C   0  0  0  0  0  0  0  0  0  0  0  0
  2  1  1  0
  3  2  2  0
  4  2  1  0
  5  4  2  0
  6  5  1  0
  7  6  1  0
  8  7  2  0
  9  5  1  0
  9  8  1  0
 10  6  2  0
 10  3  1  0
 11 10  1  0
 12 11  2  0
 13 11  1  0
 14 13  1  0
 15 14  2  0
 16 15  1  0
 17 16  1  0
 18 17  2  0
 19 18  1  0
 20 19  1  6
 21 20  2  0
 22 20  2  0
 23 20  1  0
 24 23  1  0
 24 17  1  0
 25 16  2  0
 26 25  1  0
 27 26  1  0
 28 27  1  0
 29 28  1  0
 29 25  1  0
 30 14  1  0
 30 29  2  0
M  END
>  <smiles>  (166) 
O=C(Nc1cc2c(c(C3=CCS(=O)(=O)CC3)c1)CNC2)c1cc(F)cc2[nH]ncc12

>  <inchikey>  (166) 
ZGALDORAQRGJNC-UHFFFAOYSA-N

>  <alias>  (166) 
Z3647a

$$$$
Z3654a
     RDKit          3D

 29 32  0  0  0  0  0  0  0  0999 V2000
   -4.6750    8.4420  -18.2960 O   0  0  0  0  0  0  0  0  0  0  0  0
   -3.7020    8.1550  -17.2830 S   0  0  1  0  0  0  0  0  0  0  0  0
   -2.3960    8.7350  -17.4120 O   0  0  0  0  0  0  0  0  0  0  0  0
   -4.3710    8.6030  -15.7210 C   0  0  0  0  0  0  0  0  0  0  0  0
   -3.4680    6.2670  -17.2650 C   0  0  1  0  0  0  0  0  0  0  0  0
   -2.8100    5.8370  -18.5780 C   0  0  0  0  0  0  0  0  0  0  0  0
   -2.5360    5.9020  -16.1080 C   0  0  0  0  0  0  0  0  0  0  0  0
   -4.8330    5.5970  -17.0970 C   0  0  0  0  0  0  0  0  0  0  0  0
   -5.6450    5.2790  -18.1420 N   0  0  0  0  0  0  0  0  0  0  0  0
   -6.8200    4.8690  -17.5400 C   0  0  0  0  0  0  0  0  0  0  0  0
   -6.6670    4.9360  -16.1550 C   0  0  0  0  0  0  0  0  0  0  0  0
   -5.3800    5.3900  -15.9150 N   0  0  0  0  0  0  0  0  0  0  0  0
   -8.0370    4.4820  -18.0860 C   0  0  0  0  0  0  0  0  0  0  0  0
   -9.0650    4.1930  -17.2260 C   0  0  0  0  0  0  0  0  0  0  0  0
  -10.2730    3.8770  -17.7630 F   0  0  0  0  0  0  0  0  0  0  0  0
   -8.9530    4.2350  -15.8530 C   0  0  0  0  0  0  0  0  0  0  0  0
   -7.7310    4.6160  -15.3000 C   0  0  0  0  0  0  0  0  0  0  0  0
   -7.5720    4.7350  -13.8100 C   0  0  0  0  0  0  0  0  0  0  0  0
   -6.6970    5.4540  -13.3310 O   0  0  0  0  0  0  0  0  0  0  0  0
   -8.4430    4.0230  -13.0510 N   0  0  0  0  0  0  0  0  0  0  0  0
   -8.5130    4.0150  -11.6320 C   0  0  0  0  0  0  0  0  0  0  0  0
   -8.8990    2.8740  -10.9310 C   0  0  0  0  0  0  0  0  0  0  0  0
   -8.9340    2.8900   -9.5380 C   0  0  0  0  0  0  0  0  0  0  0  0
   -9.3420    1.8080   -8.5830 C   0  0  0  0  0  0  0  0  0  0  0  0
   -8.8730    2.3560   -7.3180 N   0  0  0  0  0  0  0  0  0  0  0  0
   -8.6500    3.7990   -7.3650 C   0  0  0  0  0  0  0  0  0  0  0  0
   -8.5730    4.0350   -8.8440 C   0  0  0  0  0  0  0  0  0  0  0  0
   -8.1970    5.1740   -9.5460 C   0  0  0  0  0  0  0  0  0  0  0  0
   -8.1700    5.1670  -10.9290 C   0  0  0  0  0  0  0  0  0  0  0  0
  2  1  2  0
  3  2  2  0
  2  4  1  1
  5  2  1  0
  5  6  1  6
  7  5  1  0
  8  5  1  0
  9  8  1  0
 10  9  1  0
 11 10  2  0
 12 11  1  0
 12  8  2  0
 13 10  1  0
 14 13  2  0
 15 14  1  0
 16 14  1  0
 17 16  2  0
 17 11  1  0
 18 17  1  0
 19 18  2  0
 20 18  1  0
 21 20  1  0
 22 21  2  0
 23 22  1  0
 24 23  1  0
 25 24  1  0
 26 25  1  0
 27 26  1  0
 27 23  2  0
 28 27  1  0
 29 21  1  0
 29 28  2  0
M  END
>  <smiles>  (167) 
CC(C)(c1nc2c(C(=O)Nc3ccc4c(c3)CNC4)cc(F)cc2[nH]1)S(C)(=O)=O

>  <inchikey>  (167) 
OWUUNRYHQRJHBX-UHFFFAOYSA-N

>  <alias>  (167) 
Z3654a

$$$$
Z3665a
     RDKit          3D

 27 31  0  0  0  0  0  0  0  0999 V2000
   -6.5450    5.4170  -12.8880 O   0  0  0  0  0  0  0  0  0  0  0  0
   -7.4190    4.7530  -13.4360 C   0  0  0  0  0  0  0  0  0  0  0  0
   -7.4800    4.6510  -14.9320 C   0  0  0  0  0  0  0  0  0  0  0  0
   -6.3890    5.0600  -15.7060 C   0  0  0  0  0  0  0  0  0  0  0  0
   -6.4640    5.0140  -17.1020 C   0  0  0  0  0  0  0  0  0  0  0  0
   -5.5570    5.3520  -18.1750 C   0  0  0  0  0  0  0  0  0  0  0  0
   -4.1760    5.9440  -18.0640 C   0  0  1  0  0  0  0  0  0  0  0  0
   -4.1360    7.4160  -17.6420 C   0  0  0  0  0  0  0  0  0  0  0  0
   -2.7360    7.9540  -17.9110 C   0  0  0  0  0  0  0  0  0  0  0  0
   -1.6970    7.1480  -17.1910 N   0  0  0  0  0  0  0  0  0  0  0  0
   -1.7760    5.6820  -17.4990 C   0  0  0  0  0  0  0  0  0  0  0  0
   -3.1740    5.1350  -17.2370 C   0  0  0  0  0  0  0  0  0  0  0  0
   -6.2180    5.0600  -19.3340 C   0  0  0  0  0  0  0  0  0  0  0  0
   -7.4670    4.5760  -19.0600 N   0  0  0  0  0  0  0  0  0  0  0  0
   -7.6450    4.5380  -17.6990 C   0  0  0  0  0  0  0  0  0  0  0  0
   -8.7280    4.1160  -16.9410 C   0  0  0  0  0  0  0  0  0  0  0  0
   -8.6380    4.1820  -15.5620 C   0  0  0  0  0  0  0  0  0  0  0  0
   -8.3670    4.0700  -12.7380 N   0  0  0  0  0  0  0  0  0  0  0  0
   -8.4890    3.9910  -11.3140 C   0  0  0  0  0  0  0  0  0  0  0  0
   -8.7340    2.7880  -10.6470 C   0  0  0  0  0  0  0  0  0  0  0  0
   -8.7930    2.7550   -9.2530 C   0  0  0  0  0  0  0  0  0  0  0  0
   -9.0750    1.6020   -8.3340 C   0  0  0  0  0  0  0  0  0  0  0  0
   -8.7960    2.1710   -6.9990 N   0  0  0  0  0  0  0  0  0  0  0  0
   -8.6750    3.6350   -7.0500 C   0  0  0  0  0  0  0  0  0  0  0  0
   -8.5960    3.9170   -8.5220 C   0  0  0  0  0  0  0  0  0  0  0  0
   -8.3600    5.1160   -9.1880 C   0  0  0  0  0  0  0  0  0  0  0  0
   -8.3180    5.1570  -10.5720 C   0  0  0  0  0  0  0  0  0  0  0  0
  2  1  2  0
  3  2  1  0
  4  3  2  0
  5  4  1  0
  6  5  1  0
  7  6  1  1
  8  7  1  0
  9  8  1  0
 10  9  1  0
 11 10  1  0
 12 11  1  0
 12  7  1  0
 13  6  2  0
 14 13  1  0
 15 14  1  0
 15  5  2  0
 16 15  1  0
 17 16  2  0
 17  3  1  0
 18  2  1  0
 19 18  1  0
 20 19  2  0
 21 20  1  0
 22 21  1  0
 23 22  1  0
 24 23  1  0
 25 24  1  0
 25 21  2  0
 26 25  1  0
 27 19  1  0
 27 26  2  0
M  END
>  <smiles>  (168) 
O=C(Nc1ccc2c(c1)CNC2)c1ccc2[nH]cc(C3CCNCC3)c2c1

>  <inchikey>  (168) 
WUVCHUBJGOBPOQ-UHFFFAOYSA-N

>  <alias>  (168) 
Z3665a

$$$$
Z3673a
     RDKit          3D

 27 31  0  0  0  0  0  0  0  0999 V2000
   -6.3860    5.4450  -12.1870 O   0  0  0  0  0  0  0  0  0  0  0  0
   -7.2110    4.8340  -12.8670 C   0  0  0  0  0  0  0  0  0  0  0  0
   -8.2170    4.0950  -12.3360 N   0  0  0  0  0  0  0  0  0  0  0  0
   -8.4830    3.9350  -10.9550 C   0  0  0  0  0  0  0  0  0  0  0  0
   -8.7030    2.6830  -10.3820 C   0  0  0  0  0  0  0  0  0  0  0  0
   -8.8240    2.5600   -9.0000 C   0  0  0  0  0  0  0  0  0  0  0  0
   -9.0940    1.3390   -8.1710 C   0  0  0  0  0  0  0  0  0  0  0  0
   -8.7610    1.8390   -6.8360 N   0  0  0  0  0  0  0  0  0  0  0  0
   -8.7990    3.2960   -6.7410 C   0  0  0  0  0  0  0  0  0  0  0  0
   -8.7110    3.6810   -8.1880 C   0  0  0  0  0  0  0  0  0  0  0  0
   -8.5110    4.9300   -8.7650 C   0  0  0  0  0  0  0  0  0  0  0  0
   -8.4100    5.0600  -10.1380 C   0  0  0  0  0  0  0  0  0  0  0  0
   -7.0930    4.8140  -14.3520 C   0  0  0  0  0  0  0  0  0  0  0  0
   -8.0760    4.3660  -15.2320 C   0  0  0  0  0  0  0  0  0  0  0  0
   -7.8060    4.3480  -16.5970 C   0  0  0  0  0  0  0  0  0  0  0  0
   -6.5590    4.7630  -17.1100 C   0  0  0  0  0  0  0  0  0  0  0  0
   -5.6120    5.2340  -16.2050 C   0  0  0  0  0  0  0  0  0  0  0  0
   -5.8730    5.2560  -14.8500 C   0  0  0  0  0  0  0  0  0  0  0  0
   -8.8670    3.8180  -17.8650 S   0  0  0  0  0  0  0  0  0  0  0  0
   -7.6580    4.1110  -19.0530 C   0  0  0  0  0  0  0  0  0  0  0  0
   -6.4970    4.6170  -18.5500 C   0  0  0  0  0  0  0  0  0  0  0  0
   -5.3800    5.0330  -19.4220 C   0  0  0  0  0  0  0  0  0  0  0  0
   -3.9840    4.6480  -18.9700 C   0  0  0  0  0  0  0  0  0  0  0  0
   -3.0070    4.7270  -20.1420 C   0  0  0  0  0  0  0  0  0  0  0  0
   -3.1620    5.9610  -20.9530 N   0  0  0  0  0  0  0  0  0  0  0  0
   -4.4980    6.0570  -21.5280 C   0  0  0  0  0  0  0  0  0  0  0  0
   -5.5920    5.7080  -20.5710 C   0  0  0  0  0  0  0  0  0  0  0  0
  2  1  2  0
  3  2  1  0
  4  3  1  0
  5  4  2  0
  6  5  1  0
  7  6  1  0
  8  7  1  0
  9  8  1  0
 10  9  1  0
 10  6  2  0
 11 10  1  0
 12  4  1  0
 12 11  2  0
 13  2  1  0
 14 13  2  0
 15 14  1  0
 16 15  2  0
 17 16  1  0
 18 17  2  0
 18 13  1  0
 19 15  1  0
 20 19  1  0
 21 20  2  0
 21 16  1  0
 22 21  1  0
 23 22  2  0
 24 23  1  0
 25 24  1  0
 26 25  1  0
 27 22  1  0
 27 26  1  0
M  END
>  <smiles>  (169) 
O=C(Nc1ccc2c(c1)CNC2)c1ccc2c(C3=CCNCC3)csc2c1

>  <inchikey>  (169) 
YELJXFRDINTACG-UHFFFAOYSA-N

>  <alias>  (169) 
Z3673a

$$$$
Z3677a
     RDKit          3D

 22 25  0  0  0  0  0  0  0  0999 V2000
   -6.6760    5.4760  -13.3230 O   0  0  0  0  0  0  0  0  0  0  0  0
   -7.4490    4.6330  -13.7660 C   0  0  0  0  0  0  0  0  0  0  0  0
   -7.5860    4.4200  -15.2410 C   0  0  0  0  0  0  0  0  0  0  0  0
   -6.5230    4.7070  -16.0990 C   0  0  0  0  0  0  0  0  0  0  0  0
   -8.8050    3.9970  -15.7870 C   0  0  0  0  0  0  0  0  0  0  0  0
   -8.9710    3.8670  -17.1590 C   0  0  0  0  0  0  0  0  0  0  0  0
   -7.8870    4.1310  -17.9900 C   0  0  0  0  0  0  0  0  0  0  0  0
   -6.6690    4.5610  -17.4750 C   0  0  0  0  0  0  0  0  0  0  0  0
   -5.7210    4.7590  -18.6220 C   0  0  0  0  0  0  0  0  0  0  0  0
   -7.7670    3.9570  -19.3730 N   0  0  0  0  0  0  0  0  0  0  0  0
   -6.5220    4.2820  -19.8150 C   0  0  0  0  0  0  0  0  0  0  0  0
   -6.1220    4.1650  -20.9770 O   0  0  0  0  0  0  0  0  0  0  0  0
   -8.2690    3.8850  -12.9760 N   0  0  0  0  0  0  0  0  0  0  0  0
   -8.4190    3.9490  -11.5640 C   0  0  0  0  0  0  0  0  0  0  0  0
   -8.6720    2.7870  -10.8330 C   0  0  0  0  0  0  0  0  0  0  0  0
   -8.7520    2.8380   -9.4420 C   0  0  0  0  0  0  0  0  0  0  0  0
   -9.0670    1.7450   -8.4630 C   0  0  0  0  0  0  0  0  0  0  0  0
   -8.7330    2.3870   -7.1900 N   0  0  0  0  0  0  0  0  0  0  0  0
   -8.6300    3.8390   -7.2920 C   0  0  0  0  0  0  0  0  0  0  0  0
   -8.5640    4.0420   -8.7770 C   0  0  0  0  0  0  0  0  0  0  0  0
   -8.3360    5.2040   -9.5090 C   0  0  0  0  0  0  0  0  0  0  0  0
   -8.2730    5.1610  -10.8920 C   0  0  0  0  0  0  0  0  0  0  0  0
  2  1  2  0
  3  2  1  0
  4  3  2  0
  5  3  1  0
  6  5  2  0
  7  6  1  0
  8  7  2  0
  8  4  1  0
  9  8  1  0
 10  7  1  0
 11 10  1  0
 11  9  1  0
 12 11  2  0
 13  2  1  0
 14 13  1  0
 15 14  2  0
 16 15  1  0
 17 16  1  0
 18 17  1  0
 19 18  1  0
 20 19  1  0
 20 16  2  0
 21 20  1  0
 22 14  1  0
 22 21  2  0
M  END
>  <smiles>  (170) 
O=C1Cc2cc(C(=O)Nc3ccc4c(c3)CNC4)ccc2N1

>  <inchikey>  (170) 
QDANXSJPLDZYDO-UHFFFAOYSA-N

>  <alias>  (170) 
Z3677a

$$$$
Z3680a
     RDKit          3D

 24 27  0  0  0  0  0  0  0  0999 V2000
   -6.6700    5.5910  -12.4150 O   0  0  0  0  0  0  0  0  0  0  0  0
   -7.4730    4.8610  -12.9900 C   0  0  0  0  0  0  0  0  0  0  0  0
   -7.4320    4.7150  -14.4750 C   0  0  0  0  0  0  0  0  0  0  0  0
   -8.5170    4.3520  -15.2680 C   0  0  0  0  0  0  0  0  0  0  0  0
   -6.2240    5.0250  -15.0820 C   0  0  0  0  0  0  0  0  0  0  0  0
   -6.0910    4.9910  -16.4570 C   0  0  0  0  0  0  0  0  0  0  0  0
   -7.1570    4.6300  -17.2900 C   0  0  0  0  0  0  0  0  0  0  0  0
   -8.3790    4.3120  -16.6540 C   0  0  0  0  0  0  0  0  0  0  0  0
   -9.6010    3.8850  -17.8090 S   0  0  0  0  0  0  0  0  0  0  0  0
   -8.5050    4.1170  -19.1110 C   0  0  0  0  0  0  0  0  0  0  0  0
   -7.2610    4.5060  -18.7270 C   0  0  0  0  0  0  0  0  0  0  0  0
   -6.1570    4.7390  -19.7240 C   0  0  0  0  0  0  0  0  0  0  0  0
   -5.7080    6.2100  -19.8130 C   0  0  0  0  0  0  0  0  0  0  0  0
   -4.6420    6.3210  -20.8290 N   0  0  0  0  0  0  0  0  0  0  0  0
   -8.3910    4.1080  -12.3360 N   0  0  0  0  0  0  0  0  0  0  0  0
   -8.5510    4.0190  -10.9310 C   0  0  0  0  0  0  0  0  0  0  0  0
   -8.7930    2.7930  -10.3130 C   0  0  0  0  0  0  0  0  0  0  0  0
   -8.8280    2.7050   -8.9210 C   0  0  0  0  0  0  0  0  0  0  0  0
   -9.0460    1.5060   -8.0480 C   0  0  0  0  0  0  0  0  0  0  0  0
   -8.8500    2.0510   -6.7040 N   0  0  0  0  0  0  0  0  0  0  0  0
   -8.7120    3.5070   -6.6870 C   0  0  0  0  0  0  0  0  0  0  0  0
   -8.6290    3.8420   -8.1470 C   0  0  0  0  0  0  0  0  0  0  0  0
   -8.4020    5.0660   -8.7680 C   0  0  0  0  0  0  0  0  0  0  0  0
   -8.3700    5.1570  -10.1490 C   0  0  0  0  0  0  0  0  0  0  0  0
  2  1  2  0
  3  2  1  0
  4  3  2  0
  5  3  1  0
  6  5  2  0
  7  6  1  0
  8  7  2  0
  8  4  1  0
  9  8  1  0
 10  9  1  0
 11 10  2  0
 11  7  1  0
 12 11  1  0
 13 12  1  0
 14 13  1  0
 15  2  1  0
 16 15  1  0
 17 16  2  0
 18 17  1  0
 19 18  1  0
 20 19  1  0
 21 20  1  0
 22 21  1  0
 22 18  2  0
 23 22  1  0
 24 16  1  0
 24 23  2  0
M  END
>  <smiles>  (171) 
NCCc1csc2cc(C(=O)Nc3ccc4c(c3)CNC4)ccc12

>  <inchikey>  (171) 
RMVVLQCMVUDENF-UHFFFAOYSA-N

>  <alias>  (171) 
Z3680a

$$$$
Z3685a
     RDKit          3D

 28 32  0  0  0  0  0  0  0  0999 V2000
  -10.4220    3.8360  -17.6530 F   0  0  0  0  0  0  0  0  0  0  0  0
   -9.2040    4.1730  -17.1570 C   0  0  0  0  0  0  0  0  0  0  0  0
   -9.0540    4.2750  -15.7890 C   0  0  0  0  0  0  0  0  0  0  0  0
   -8.1870    4.3810  -18.0520 C   0  0  0  0  0  0  0  0  0  0  0  0
   -6.9420    4.7050  -17.5330 C   0  0  0  0  0  0  0  0  0  0  0  0
   -6.7150    4.8350  -16.1470 C   0  0  0  0  0  0  0  0  0  0  0  0
   -5.3370    5.1440  -16.0470 C   0  0  0  0  0  0  0  0  0  0  0  0
   -4.7600    5.1810  -17.2330 N   0  0  0  0  0  0  0  0  0  0  0  0
   -5.7460    4.9140  -18.1390 N   0  0  0  0  0  0  0  0  0  0  0  0
   -7.7960    4.6080  -15.2750 C   0  0  0  0  0  0  0  0  0  0  0  0
   -7.6060    4.7400  -13.7880 C   0  0  0  0  0  0  0  0  0  0  0  0
   -6.6310    5.3320  -13.3390 O   0  0  0  0  0  0  0  0  0  0  0  0
   -8.5410    4.1560  -12.9940 N   0  0  0  0  0  0  0  0  0  0  0  0
   -8.5520    4.1290  -11.5720 C   0  0  0  0  0  0  0  0  0  0  0  0
   -8.3540    5.3090  -10.8530 C   0  0  0  0  0  0  0  0  0  0  0  0
   -8.3900    5.2980   -9.4540 C   0  0  0  0  0  0  0  0  0  0  0  0
   -8.2460    6.6180   -8.7690 C   0  0  0  0  0  0  0  0  0  0  0  0
   -9.0330    7.7650   -9.3880 C   0  0  0  0  0  0  0  0  0  0  0  0
   -9.2110    8.8620   -8.3360 C   0  0  0  0  0  0  0  0  0  0  0  0
   -7.9690    9.1680   -7.6810 O   0  0  0  0  0  0  0  0  0  0  0  0
   -7.4980    8.0710   -6.8980 C   0  0  0  0  0  0  0  0  0  0  0  0
   -7.5080    6.7780   -7.6430 C   0  0  0  0  0  0  0  0  0  0  0  0
   -8.6250    4.0920   -8.7730 C   0  0  0  0  0  0  0  0  0  0  0  0
   -8.7480    3.8310   -7.2990 C   0  0  0  0  0  0  0  0  0  0  0  0
   -8.7720    2.3740   -7.2670 N   0  0  0  0  0  0  0  0  0  0  0  0
   -9.1000    1.7800   -8.5570 C   0  0  0  0  0  0  0  0  0  0  0  0
   -8.8160    2.9180   -9.4920 C   0  0  0  0  0  0  0  0  0  0  0  0
   -8.7710    2.9350  -10.8850 C   0  0  0  0  0  0  0  0  0  0  0  0
  2  1  1  0
  3  2  2  0
  4  2  1  0
  5  4  2  0
  6  5  1  0
  7  6  1  0
  8  7  2  0
  9  5  1  0
  9  8  1  0
 10  6  2  0
 10  3  1  0
 11 10  1  0
 12 11  2  0
 13 11  1  0
 14 13  1  0
 15 14  2  0
 16 15  1  0
 17 16  1  0
 18 17  2  0
 19 18  1  0
 20 19  1  0
 21 20  1  0
 22 21  1  0
 22 17  1  0
 23 16  2  0
 24 23  1  0
 25 24  1  0
 26 25  1  0
 27 26  1  0
 27 23  1  0
 28 14  1  0
 28 27  2  0
M  END
>  <smiles>  (172) 
O=C(Nc1cc2c(c(C3=CCOCC3)c1)CNC2)c1cc(F)cc2[nH]ncc12

>  <inchikey>  (172) 
OVKAMOGUHWHSGI-UHFFFAOYSA-N

>  <alias>  (172) 
Z3685a

$$$$
Z3689a
     RDKit          3D

 30 34  0  0  0  0  0  0  0  0999 V2000
  -10.4200    3.7650  -17.6830 F   0  0  0  0  0  0  0  0  0  0  0  0
   -9.2040    4.0740  -17.1520 C   0  0  0  0  0  0  0  0  0  0  0  0
   -9.0950    4.1880  -15.7830 C   0  0  0  0  0  0  0  0  0  0  0  0
   -8.1640    4.2890  -18.0200 C   0  0  0  0  0  0  0  0  0  0  0  0
   -6.9470    4.6710  -17.4680 C   0  0  0  0  0  0  0  0  0  0  0  0
   -6.7700    4.8320  -16.0810 C   0  0  0  0  0  0  0  0  0  0  0  0
   -5.4210    5.2380  -15.9460 C   0  0  0  0  0  0  0  0  0  0  0  0
   -4.8200    5.3180  -17.1160 N   0  0  0  0  0  0  0  0  0  0  0  0
   -5.7550    4.9650  -18.0450 N   0  0  0  0  0  0  0  0  0  0  0  0
   -7.8660    4.5740  -15.2380 C   0  0  0  0  0  0  0  0  0  0  0  0
   -7.7110    4.7320  -13.7510 C   0  0  0  0  0  0  0  0  0  0  0  0
   -6.8500    5.4800  -13.2970 O   0  0  0  0  0  0  0  0  0  0  0  0
   -8.5360    3.9960  -12.9640 N   0  0  0  0  0  0  0  0  0  0  0  0
   -8.5670    4.0040  -11.5410 C   0  0  0  0  0  0  0  0  0  0  0  0
   -8.3630    5.1980  -10.8520 C   0  0  0  0  0  0  0  0  0  0  0  0
   -8.8240    2.8420  -10.8220 C   0  0  0  0  0  0  0  0  0  0  0  0
   -8.9030    2.8790   -9.4320 C   0  0  0  0  0  0  0  0  0  0  0  0
   -9.2490    1.7790   -8.4710 C   0  0  0  0  0  0  0  0  0  0  0  0
   -8.9020    2.3900   -7.1990 N   0  0  0  0  0  0  0  0  0  0  0  0
   -8.7770    3.8410   -7.2640 C   0  0  0  0  0  0  0  0  0  0  0  0
   -8.6900    4.0680   -8.7450 C   0  0  0  0  0  0  0  0  0  0  0  0
   -8.4120    5.2560   -9.4570 C   0  0  0  0  0  0  0  0  0  0  0  0
   -8.0820    6.5540   -8.8010 C   0  0  0  0  0  0  0  0  0  0  0  0
   -8.7030    6.9570   -7.6230 C   0  0  0  0  0  0  0  0  0  0  0  0
   -7.0710    7.3610   -9.2980 C   0  0  0  0  0  0  0  0  0  0  0  0
   -6.7040    8.4880   -8.5930 C   0  0  0  0  0  0  0  0  0  0  0  0
   -7.2650    8.8670   -7.4360 N   0  0  0  0  0  0  0  0  0  0  0  0
   -8.2400    8.1010   -6.9860 C   0  0  0  0  0  0  0  0  0  0  0  0
   -8.8440    8.4420   -5.8310 O   0  0  0  0  0  0  0  0  0  0  0  0
   -8.3830    7.8180   -4.6290 C   0  0  0  0  0  0  0  0  0  0  0  0
  2  1  1  0
  3  2  2  0
  4  2  1  0
  5  4  2  0
  6  5  1  0
  7  6  1  0
  8  7  2  0
  9  5  1  0
  9  8  1  0
 10  6  2  0
 10  3  1  0
 11 10  1  0
 12 11  2  0
 13 11  1  0
 14 13  1  0
 15 14  2  0
 16 14  1  0
 17 16  2  0
 18 17  1  0
 19 18  1  0
 20 19  1  0
 21 20  1  0
 21 17  1  0
 22 21  2  0
 22 15  1  0
 23 22  1  0
 24 23  2  0
 25 23  1  0
 26 25  2  0
 27 26  1  0
 28 27  2  0
 28 24  1  0
 29 28  1  0
 30 29  1  0
M  END
>  <smiles>  (173) 
COc1cc(-c2cc(NC(=O)c3cc(F)cc4[nH]ncc34)cc3c2CNC3)ccn1

>  <inchikey>  (173) 
ATEOZXUEQXHRLG-UHFFFAOYSA-N

>  <alias>  (173) 
Z3689a

$$$$
Z3691a
     RDKit          3D

 26 29  0  0  0  0  0  0  0  0999 V2000
   -7.6760    6.5440  -13.8180 O   0  0  0  0  0  0  0  0  0  0  0  0
   -8.3030    5.5420  -13.4830 C   0  0  0  0  0  0  0  0  0  0  0  0
   -8.4720    5.1940  -12.0400 C   0  0  0  0  0  0  0  0  0  0  0  0
   -8.4810    6.2010  -11.0810 C   0  0  0  0  0  0  0  0  0  0  0  0
   -8.5260    3.8680  -11.6300 C   0  0  0  0  0  0  0  0  0  0  0  0
   -8.5470    3.5420  -10.2860 C   0  0  0  0  0  0  0  0  0  0  0  0
   -8.5470    4.5290   -9.2930 C   0  0  0  0  0  0  0  0  0  0  0  0
   -8.5370    5.8690   -9.7310 C   0  0  0  0  0  0  0  0  0  0  0  0
   -8.6270    6.9730   -8.3970 S   0  0  0  0  0  0  0  0  0  0  0  0
   -8.6530    5.6750   -7.2710 C   0  0  0  0  0  0  0  0  0  0  0  0
   -8.5860    4.4450   -7.8480 C   0  0  0  0  0  0  0  0  0  0  0  0
   -8.4490    3.1970   -7.0210 C   0  0  0  0  0  0  0  0  0  0  0  0
   -9.5070    2.1410   -7.3340 C   0  0  0  0  0  0  0  0  0  0  0  0
   -9.1110    1.4570   -8.5620 N   0  0  0  0  0  0  0  0  0  0  0  0
   -8.8830    4.6910  -14.3660 N   0  0  0  0  0  0  0  0  0  0  0  0
   -8.8310    4.7390  -15.7670 C   0  0  0  0  0  0  0  0  0  0  0  0
   -9.9790    4.5190  -16.4260 N   0  0  0  0  0  0  0  0  0  0  0  0
   -9.9180    4.4700  -17.7650 C   0  0  0  0  0  0  0  0  0  0  0  0
   -8.7550    4.6290  -18.4840 C   0  0  0  0  0  0  0  0  0  0  0  0
   -7.5730    4.8640  -17.8010 C   0  0  0  0  0  0  0  0  0  0  0  0
   -7.6110    4.9260  -16.4130 C   0  0  0  0  0  0  0  0  0  0  0  0
   -6.2650    5.0460  -18.5450 C   0  0  2  0  0  0  0  0  0  0  0  0
   -5.0280    4.6070  -17.7540 C   0  0  0  0  0  0  0  0  0  0  0  0
   -4.0730    5.6570  -17.8620 O   0  0  0  0  0  0  0  0  0  0  0  0
   -4.8290    6.8510  -17.9470 C   0  0  0  0  0  0  0  0  0  0  0  0
   -5.9530    6.5230  -18.8900 C   0  0  0  0  0  0  0  0  0  0  0  0
  2  1  2  0
  3  2  1  0
  4  3  2  0
  5  3  1  0
  6  5  2  0
  7  6  1  0
  8  7  2  0
  8  4  1  0
  9  8  1  0
 10  9  1  0
 11  7  1  0
 11 10  2  0
 12 11  1  0
 13 12  1  0
 14 13  1  0
 15  2  1  0
 16 15  1  0
 17 16  2  0
 18 17  1  0
 19 18  2  0
 20 19  1  0
 21 20  2  0
 21 16  1  0
 22 20  1  1
 23 22  1  0
 24 23  1  0
 25 24  1  0
 26 22  1  0
 26 25  1  0
M  END
>  <smiles>  (174) 
NCCc1csc2cc(C(=O)Nc3cc([C@H]4CCOC4)ccn3)ccc12

>  <inchikey>  (174) 
BQMIROHOYNZKOI-HNNXBMFYSA-N

>  <alias>  (174) 
Z3691a

$$$$
Z3696a
     RDKit          3D

 24 27  0  0  0  0  0  0  0  0999 V2000
  -10.4460    3.8140  -17.7390 F   0  0  0  0  0  0  0  0  0  0  0  0
   -9.2090    4.0660  -17.2200 C   0  0  0  0  0  0  0  0  0  0  0  0
   -9.0650    4.1200  -15.8470 C   0  0  0  0  0  0  0  0  0  0  0  0
   -8.1940    4.3280  -18.1030 C   0  0  0  0  0  0  0  0  0  0  0  0
   -6.9730    4.7100  -17.5680 C   0  0  0  0  0  0  0  0  0  0  0  0
   -6.7570    4.8050  -16.1780 C   0  0  0  0  0  0  0  0  0  0  0  0
   -5.4110    5.2280  -16.0620 C   0  0  0  0  0  0  0  0  0  0  0  0
   -4.8490    5.3840  -17.2450 N   0  0  0  0  0  0  0  0  0  0  0  0
   -5.8070    5.0690  -18.1640 N   0  0  0  0  0  0  0  0  0  0  0  0
   -7.8270    4.4970  -15.3130 C   0  0  0  0  0  0  0  0  0  0  0  0
   -7.6600    4.6090  -13.8190 C   0  0  0  0  0  0  0  0  0  0  0  0
   -6.6510    5.1200  -13.3390 O   0  0  0  0  0  0  0  0  0  0  0  0
   -8.6530    4.1010  -13.0440 N   0  0  0  0  0  0  0  0  0  0  0  0
   -8.6610    4.0340  -11.6150 C   0  0  0  0  0  0  0  0  0  0  0  0
   -8.5460    5.2330  -10.8850 C   0  0  0  0  0  0  0  0  0  0  0  0
   -8.3790    6.4850  -11.5740 C   0  0  0  0  0  0  0  0  0  0  0  0
   -8.2390    7.4960  -12.0820 N   0  0  0  0  0  0  0  0  0  0  0  0
   -8.7870    2.8280  -10.9140 C   0  0  0  0  0  0  0  0  0  0  0  0
   -8.8210    2.8200   -9.5170 C   0  0  0  0  0  0  0  0  0  0  0  0
   -9.0500    1.6750   -8.5740 C   0  0  0  0  0  0  0  0  0  0  0  0
   -8.7240    2.2850   -7.2920 N   0  0  0  0  0  0  0  0  0  0  0  0
   -8.7070    3.7450   -7.3320 C   0  0  0  0  0  0  0  0  0  0  0  0
   -8.6930    4.0070   -8.8100 C   0  0  0  0  0  0  0  0  0  0  0  0
   -8.5600    5.2070   -9.4940 C   0  0  0  0  0  0  0  0  0  0  0  0
  2  1  1  0
  3  2  2  0
  4  2  1  0
  5  4  2  0
  6  5  1  0
  7  6  1  0
  8  7  2  0
  9  5  1  0
  9  8  1  0
 10  6  2  0
 10  3  1  0
 11 10  1  0
 12 11  2  0
 13 11  1  0
 14 13  1  0
 15 14  2  0
 16 15  1  0
 17 16  3  0
 18 14  1  0
 19 18  2  0
 20 19  1  0
 21 20  1  0
 22 21  1  0
 23 22  1  0
 23 19  1  0
 24 23  2  0
 24 15  1  0
M  END
>  <smiles>  (175) 
N#Cc1cc2c(cc1NC(=O)c1cc(F)cc3[nH]ncc13)CNC2

>  <inchikey>  (175) 
PVNIINDFNOMXKR-UHFFFAOYSA-N

>  <alias>  (175) 
Z3696a

$$$$
Z3699a
     RDKit          3D

 30 34  0  0  0  0  0  0  0  0999 V2000
  -10.4170    3.6880  -17.7280 F   0  0  0  0  0  0  0  0  0  0  0  0
   -9.1920    4.0830  -17.2900 C   0  0  0  0  0  0  0  0  0  0  0  0
   -9.0090    4.2510  -15.9380 C   0  0  0  0  0  0  0  0  0  0  0  0
   -8.2140    4.3100  -18.2240 C   0  0  0  0  0  0  0  0  0  0  0  0
   -6.9730    4.7300  -17.7590 C   0  0  0  0  0  0  0  0  0  0  0  0
   -6.7140    4.9290  -16.3880 C   0  0  0  0  0  0  0  0  0  0  0  0
   -5.3450    5.2860  -16.3380 C   0  0  0  0  0  0  0  0  0  0  0  0
   -4.8070    5.3110  -17.5430 N   0  0  0  0  0  0  0  0  0  0  0  0
   -5.8070    4.9780  -18.4100 N   0  0  0  0  0  0  0  0  0  0  0  0
   -7.7650    4.6900  -15.4810 C   0  0  0  0  0  0  0  0  0  0  0  0
   -7.5990    4.9160  -14.0070 C   0  0  0  0  0  0  0  0  0  0  0  0
   -6.7450    5.6920  -13.5830 O   0  0  0  0  0  0  0  0  0  0  0  0
   -8.4240    4.1960  -13.2020 N   0  0  0  0  0  0  0  0  0  0  0  0
   -8.4540    4.1840  -11.7850 C   0  0  0  0  0  0  0  0  0  0  0  0
   -8.1940    5.3430  -11.0570 C   0  0  0  0  0  0  0  0  0  0  0  0
   -8.7490    3.0050  -11.1070 C   0  0  0  0  0  0  0  0  0  0  0  0
   -8.7900    2.9860   -9.7180 C   0  0  0  0  0  0  0  0  0  0  0  0
   -9.1480    1.8600   -8.7920 C   0  0  0  0  0  0  0  0  0  0  0  0
   -8.8110    2.4280   -7.4980 N   0  0  0  0  0  0  0  0  0  0  0  0
   -8.6370    3.8780   -7.5200 C   0  0  0  0  0  0  0  0  0  0  0  0
   -8.5230    4.1410   -8.9920 C   0  0  0  0  0  0  0  0  0  0  0  0
   -8.2170    5.3420   -9.6640 C   0  0  0  0  0  0  0  0  0  0  0  0
   -7.8930    6.6120   -8.9570 C   0  0  0  0  0  0  0  0  0  0  0  0
   -6.6270    7.1810   -9.0630 C   0  0  0  0  0  0  0  0  0  0  0  0
   -8.8540    7.3020   -8.2290 C   0  0  0  0  0  0  0  0  0  0  0  0
   -8.5210    8.5110   -7.6540 C   0  0  0  0  0  0  0  0  0  0  0  0
   -7.3090    9.0790   -7.7530 N   0  0  0  0  0  0  0  0  0  0  0  0
   -6.4020    8.4070   -8.4490 C   0  0  0  0  0  0  0  0  0  0  0  0
   -5.1670    8.9260   -8.5780 O   0  0  0  0  0  0  0  0  0  0  0  0
   -4.7910    9.4250   -9.8600 C   0  0  0  0  0  0  0  0  0  0  0  0
  2  1  1  0
  3  2  2  0
  4  2  1  0
  5  4  2  0
  6  5  1  0
  7  6  1  0
  8  7  2  0
  9  5  1  0
  9  8  1  0
 10  6  2  0
 10  3  1  0
 11 10  1  0
 12 11  2  0
 13 11  1  0
 14 13  1  0
 15 14  2  0
 16 14  1  0
 17 16  2  0
 18 17  1  0
 19 18  1  0
 20 19  1  0
 21 20  1  0
 21 17  1  0
 22 15  1  0
 22 21  2  0
 23 22  1  0
 24 23  2  0
 25 23  1  0
 26 25  2  0
 27 26  1  0
 28 27  2  0
 28 24  1  0
 29 28  1  0
 30 29  1  0
M  END
>  <smiles>  (176) 
COc1cc(-c2cc(NC(=O)c3cc(F)cc4[nH]ncc34)cc3c2CNC3)ccn1

>  <inchikey>  (176) 
ATEOZXUEQXHRLG-UHFFFAOYSA-N

>  <alias>  (176) 
Z3699a

$$$$
Z3706a
     RDKit          3D

 24 27  0  0  0  0  0  0  0  0999 V2000
  -10.4200    3.8960  -17.6980 F   0  0  0  0  0  0  0  0  0  0  0  0
   -9.1740    4.1070  -17.1880 C   0  0  0  0  0  0  0  0  0  0  0  0
   -9.0200    4.1580  -15.8170 C   0  0  0  0  0  0  0  0  0  0  0  0
   -8.1520    4.3130  -18.0760 C   0  0  0  0  0  0  0  0  0  0  0  0
   -6.9040    4.6120  -17.5470 C   0  0  0  0  0  0  0  0  0  0  0  0
   -6.6800    4.7070  -16.1580 C   0  0  0  0  0  0  0  0  0  0  0  0
   -5.3100    5.0470  -16.0500 C   0  0  0  0  0  0  0  0  0  0  0  0
   -4.7380    5.1400  -17.2340 N   0  0  0  0  0  0  0  0  0  0  0  0
   -5.7170    4.8750  -18.1480 N   0  0  0  0  0  0  0  0  0  0  0  0
   -7.7630    4.4670  -15.2900 C   0  0  0  0  0  0  0  0  0  0  0  0
   -7.5710    4.5760  -13.8000 C   0  0  0  0  0  0  0  0  0  0  0  0
   -6.5580    5.0950  -13.3410 O   0  0  0  0  0  0  0  0  0  0  0  0
   -8.5460    4.0580  -13.0100 N   0  0  0  0  0  0  0  0  0  0  0  0
   -8.5660    4.0160  -11.5780 C   0  0  0  0  0  0  0  0  0  0  0  0
   -8.4990    5.2290  -10.8650 C   0  0  0  0  0  0  0  0  0  0  0  0
   -8.5930    6.4840  -11.5610 C   0  0  0  0  0  0  0  0  0  0  0  0
   -8.6730    7.4970  -12.0780 N   0  0  0  0  0  0  0  0  0  0  0  0
   -8.6580    2.8190  -10.8600 C   0  0  0  0  0  0  0  0  0  0  0  0
   -8.6970    2.8270   -9.4650 C   0  0  0  0  0  0  0  0  0  0  0  0
   -8.9790    1.6980   -8.5200 C   0  0  0  0  0  0  0  0  0  0  0  0
   -8.7700    2.3280   -7.2210 N   0  0  0  0  0  0  0  0  0  0  0  0
   -8.6310    3.7840   -7.2930 C   0  0  0  0  0  0  0  0  0  0  0  0
   -8.5830    4.0240   -8.7720 C   0  0  0  0  0  0  0  0  0  0  0  0
   -8.4740    5.2160   -9.4710 C   0  0  0  0  0  0  0  0  0  0  0  0
  2  1  1  0
  3  2  2  0
  4  2  1  0
  5  4  2  0
  6  5  1  0
  7  6  1  0
  8  7  2  0
  9  5  1  0
  9  8  1  0
 10  6  2  0
 10  3  1  0
 11 10  1  0
 12 11  2  0
 13 11  1  0
 14 13  1  0
 15 14  2  0
 16 15  1  0
 17 16  3  0
 18 14  1  0
 19 18  2  0
 20 19  1  0
 21 20  1  0
 22 21  1  0
 23 22  1  0
 23 19  1  0
 24 23  2  0
 24 15  1  0
M  END
>  <smiles>  (177) 
N#Cc1cc2c(cc1NC(=O)c1cc(F)cc3[nH]ncc13)CNC2

>  <inchikey>  (177) 
PVNIINDFNOMXKR-UHFFFAOYSA-N

>  <alias>  (177) 
Z3706a

$$$$
Z3711a
     RDKit          3D

 29 33  0  0  0  0  0  0  0  0999 V2000
   -6.5550    5.4950  -12.5690 O   0  0  0  0  0  0  0  0  0  0  0  0
   -7.3220    4.7340  -13.1540 C   0  0  0  0  0  0  0  0  0  0  0  0
   -8.2280    3.9560  -12.5110 N   0  0  0  0  0  0  0  0  0  0  0  0
   -8.4290    3.8930  -11.1120 C   0  0  0  0  0  0  0  0  0  0  0  0
   -8.7040    2.6740  -10.4980 C   0  0  0  0  0  0  0  0  0  0  0  0
   -8.8130    2.5980   -9.1120 C   0  0  0  0  0  0  0  0  0  0  0  0
   -9.1780    1.4270   -8.2490 C   0  0  0  0  0  0  0  0  0  0  0  0
   -8.8620    1.9440   -6.9170 N   0  0  0  0  0  0  0  0  0  0  0  0
   -8.7720    3.4070   -6.8780 C   0  0  0  0  0  0  0  0  0  0  0  0
   -8.6270    3.7340   -8.3360 C   0  0  0  0  0  0  0  0  0  0  0  0
   -8.3590    4.9520   -8.9510 C   0  0  0  0  0  0  0  0  0  0  0  0
   -8.2760    5.0360  -10.3300 C   0  0  0  0  0  0  0  0  0  0  0  0
   -7.2630    4.5950  -14.6410 C   0  0  0  0  0  0  0  0  0  0  0  0
   -8.3440    4.2290  -15.4390 C   0  0  0  0  0  0  0  0  0  0  0  0
   -6.0580    4.9620  -15.2390 C   0  0  0  0  0  0  0  0  0  0  0  0
   -5.9320    5.0000  -16.6140 C   0  0  0  0  0  0  0  0  0  0  0  0
   -6.9960    4.6390  -17.4360 C   0  0  0  0  0  0  0  0  0  0  0  0
   -8.2040    4.2440  -16.8210 C   0  0  0  0  0  0  0  0  0  0  0  0
   -9.3890    3.7690  -18.0000 S   0  0  0  0  0  0  0  0  0  0  0  0
   -8.2970    4.0880  -19.2920 C   0  0  0  0  0  0  0  0  0  0  0  0
   -7.0720    4.5350  -18.8880 C   0  0  0  0  0  0  0  0  0  0  0  0
   -5.9680    4.7780  -19.8600 C   0  0  0  0  0  0  0  0  0  0  0  0
   -5.8030    3.9360  -20.9550 C   0  0  0  0  0  0  0  0  0  0  0  0
   -4.8490    4.2180  -21.9180 C   0  0  0  0  0  0  0  0  0  0  0  0
   -4.0420    5.3330  -21.7890 C   0  0  0  0  0  0  0  0  0  0  0  0
   -5.1430    5.8980  -19.7390 C   0  0  0  0  0  0  0  0  0  0  0  0
   -4.1630    6.1710  -20.6940 C   0  0  0  0  0  0  0  0  0  0  0  0
   -3.1740    7.2930  -20.5110 C   0  0  0  0  0  0  0  0  0  0  0  0
   -3.8690    8.4960  -20.0660 N   0  0  0  0  0  0  0  0  0  0  0  0
  2  1  2  0
  3  2  1  0
  4  3  1  0
  5  4  2  0
  6  5  1  0
  7  6  1  0
  8  7  1  0
  9  8  1  0
 10  9  1  0
 10  6  2  0
 11 10  1  0
 12  4  1  0
 12 11  2  0
 13  2  1  0
 14 13  2  0
 15 13  1  0
 16 15  2  0
 17 16  1  0
 18 17  2  0
 18 14  1  0
 19 18  1  0
 20 19  1  0
 21 20  2  0
 21 17  1  0
 22 21  1  0
 23 22  2  0
 24 23  1  0
 25 24  2  0
 26 22  1  0
 27 25  1  0
 27 26  2  0
 28 27  1  0
 29 28  1  0
M  END
>  <smiles>  (178) 
NCc1cccc(-c2csc3cc(C(=O)Nc4ccc5c(c4)CNC5)ccc23)c1

>  <inchikey>  (178) 
GBNXITZIQULYRN-UHFFFAOYSA-N

>  <alias>  (178) 
Z3711a

$$$$
Z3720a
     RDKit          3D

 30 34  0  0  0  0  0  0  0  0999 V2000
  -10.2440    3.7730  -17.6690 F   0  0  0  0  0  0  0  0  0  0  0  0
   -9.0510    4.2080  -17.1860 C   0  0  0  0  0  0  0  0  0  0  0  0
   -8.0640    4.5100  -18.0890 C   0  0  0  0  0  0  0  0  0  0  0  0
   -6.8440    4.9550  -17.5940 C   0  0  0  0  0  0  0  0  0  0  0  0
   -6.6400    5.0680  -16.2180 C   0  0  0  0  0  0  0  0  0  0  0  0
   -5.3220    5.4510  -15.9770 N   0  0  0  0  0  0  0  0  0  0  0  0
   -5.6310    5.2560  -18.1860 N   0  0  0  0  0  0  0  0  0  0  0  0
   -4.7640    5.5300  -17.1740 C   0  0  0  0  0  0  0  0  0  0  0  0
   -3.3330    5.7940  -17.3910 C   0  0  0  0  0  0  0  0  0  0  0  0
   -2.7870    5.8040  -18.5780 N   0  0  0  0  0  0  0  0  0  0  0  0
   -1.4030    6.0200  -18.5430 N   0  0  0  0  0  0  0  0  0  0  0  0
   -2.1970    6.0540  -16.0920 S   0  0  0  0  0  0  0  0  0  0  0  0
   -0.9460    6.1700  -17.3420 C   0  0  0  0  0  0  0  0  0  0  0  0
    0.4980    6.4340  -16.9920 C   0  0  1  0  0  0  0  0  0  0  0  0
    0.9950    5.4440  -15.9400 C   0  0  0  0  0  0  0  0  0  0  0  0
    1.4400    6.4690  -18.2000 C   0  0  0  0  0  0  0  0  0  0  0  0
   -8.9000    4.3110  -15.8200 C   0  0  0  0  0  0  0  0  0  0  0  0
   -7.6680    4.7420  -15.3190 C   0  0  0  0  0  0  0  0  0  0  0  0
   -7.4540    4.8150  -13.8330 C   0  0  0  0  0  0  0  0  0  0  0  0
   -6.5560    5.5120  -13.3640 O   0  0  0  0  0  0  0  0  0  0  0  0
   -8.3100    4.0880  -13.0690 N   0  0  0  0  0  0  0  0  0  0  0  0
   -8.3680    4.0440  -11.6500 C   0  0  0  0  0  0  0  0  0  0  0  0
   -8.6790    2.8630  -10.9780 C   0  0  0  0  0  0  0  0  0  0  0  0
   -8.7930    2.8560   -9.5900 C   0  0  0  0  0  0  0  0  0  0  0  0
   -9.1720    1.7340   -8.6680 C   0  0  0  0  0  0  0  0  0  0  0  0
   -9.0280    2.3450   -7.3560 N   0  0  0  0  0  0  0  0  0  0  0  0
   -8.7690    3.7770   -7.4020 C   0  0  0  0  0  0  0  0  0  0  0  0
   -8.5800    4.0220   -8.8700 C   0  0  0  0  0  0  0  0  0  0  0  0
   -8.2560    5.1960   -9.5400 C   0  0  0  0  0  0  0  0  0  0  0  0
   -8.1540    5.2110  -10.9190 C   0  0  0  0  0  0  0  0  0  0  0  0
  2  1  1  0
  3  2  2  0
  4  3  1  0
  5  4  2  0
  6  5  1  0
  7  4  1  0
  8  7  1  0
  8  6  2  0
  9  8  1  0
 10  9  2  0
 11 10  1  0
 12  9  1  0
 13 11  2  0
 13 12  1  0
 14 13  1  0
 14 15  1  1
 16 14  1  0
 17  2  1  0
 18 17  2  0
 18  5  1  0
 19 18  1  0
 20 19  2  0
 21 19  1  0
 22 21  1  0
 23 22  2  0
 24 23  1  0
 25 24  1  0
 26 25  1  0
 27 26  1  0
 28 27  1  0
 28 24  2  0
 29 28  1  0
 30 22  1  0
 30 29  2  0
M  END
>  <smiles>  (179) 
CC(C)c1nnc(-c2nc3c(C(=O)Nc4ccc5c(c4)CNC5)cc(F)cc3[nH]2)s1

>  <inchikey>  (179) 
RSOBJAAUDASANC-UHFFFAOYSA-N

>  <alias>  (179) 
Z3720a

$$$$
Z3729a
     RDKit          3D

 21 24  0  0  0  0  0  0  0  0999 V2000
   -6.5150    5.3060  -12.8210 O   0  0  0  0  0  0  0  0  0  0  0  0
   -7.3630    4.6120  -13.3790 C   0  0  0  0  0  0  0  0  0  0  0  0
   -7.4250    4.5300  -14.8750 C   0  0  0  0  0  0  0  0  0  0  0  0
   -8.5950    4.1960  -15.5590 C   0  0  0  0  0  0  0  0  0  0  0  0
   -8.6050    4.1790  -16.9610 C   0  0  0  0  0  0  0  0  0  0  0  0
   -9.5910    3.8710  -17.9580 C   0  0  0  0  0  0  0  0  0  0  0  0
   -8.9840    3.9930  -19.1670 C   0  0  0  0  0  0  0  0  0  0  0  0
   -7.6710    4.3590  -18.9990 N   0  0  0  0  0  0  0  0  0  0  0  0
   -7.4190    4.4990  -17.6530 C   0  0  0  0  0  0  0  0  0  0  0  0
   -6.2540    4.8570  -16.9830 C   0  0  0  0  0  0  0  0  0  0  0  0
   -6.2620    4.8570  -15.5960 C   0  0  0  0  0  0  0  0  0  0  0  0
   -8.2920    3.9030  -12.6930 N   0  0  0  0  0  0  0  0  0  0  0  0
   -8.4550    3.8820  -11.2770 C   0  0  0  0  0  0  0  0  0  0  0  0
   -8.6640    2.6870  -10.5890 C   0  0  0  0  0  0  0  0  0  0  0  0
   -8.7590    2.6850   -9.1940 C   0  0  0  0  0  0  0  0  0  0  0  0
   -9.0730    1.5490   -8.2660 C   0  0  0  0  0  0  0  0  0  0  0  0
   -8.8700    2.1610   -6.9410 N   0  0  0  0  0  0  0  0  0  0  0  0
   -8.8200    3.6310   -7.0150 C   0  0  0  0  0  0  0  0  0  0  0  0
   -8.6450    3.8720   -8.4860 C   0  0  0  0  0  0  0  0  0  0  0  0
   -8.4430    5.0650   -9.1760 C   0  0  0  0  0  0  0  0  0  0  0  0
   -8.3560    5.0730  -10.5610 C   0  0  0  0  0  0  0  0  0  0  0  0
  2  1  2  0
  3  2  1  0
  4  3  2  0
  5  4  1  0
  6  5  1  0
  7  6  2  0
  8  7  1  0
  9  8  1  0
  9  5  2  0
 10  9  1  0
 11 10  2  0
 11  3  1  0
 12  2  1  0
 13 12  1  0
 14 13  2  0
 15 14  1  0
 16 15  1  0
 17 16  1  0
 18 17  1  0
 19 18  1  0
 19 15  2  0
 20 19  1  0
 21 13  1  0
 21 20  2  0
M  END
>  <smiles>  (180) 
O=C(Nc1ccc2c(c1)CNC2)c1ccc2[nH]ccc2c1

>  <inchikey>  (180) 
HPSOSXRYCXJEKK-UHFFFAOYSA-N

>  <alias>  (180) 
Z3729a

$$$$
Z3733a
     RDKit          3D

 21 24  0  0  0  0  0  0  0  0999 V2000
   -6.5920    5.3560  -13.2270 O   0  0  0  0  0  0  0  0  0  0  0  0
   -7.5580    4.7500  -13.6800 C   0  0  0  0  0  0  0  0  0  0  0  0
   -7.7280    4.5970  -15.1590 C   0  0  0  0  0  0  0  0  0  0  0  0
   -6.7170    4.9990  -16.0530 C   0  0  0  0  0  0  0  0  0  0  0  0
   -5.4500    5.4310  -15.8510 N   0  0  0  0  0  0  0  0  0  0  0  0
   -4.7910    5.6210  -17.0320 N   0  0  0  0  0  0  0  0  0  0  0  0
   -5.6510    5.3220  -17.9860 C   0  0  0  0  0  0  0  0  0  0  0  0
   -6.8970    4.9100  -17.4470 C   0  0  0  0  0  0  0  0  0  0  0  0
   -8.1050    4.4130  -17.9420 C   0  0  0  0  0  0  0  0  0  0  0  0
   -9.0950    3.9960  -17.0670 C   0  0  0  0  0  0  0  0  0  0  0  0
   -8.9120    4.0810  -15.6910 C   0  0  0  0  0  0  0  0  0  0  0  0
   -8.5030    4.1610  -12.9060 N   0  0  0  0  0  0  0  0  0  0  0  0
   -8.5400    4.1100  -11.4900 C   0  0  0  0  0  0  0  0  0  0  0  0
   -8.8570    2.9240  -10.8290 C   0  0  0  0  0  0  0  0  0  0  0  0
   -8.8900    2.8880   -9.4380 C   0  0  0  0  0  0  0  0  0  0  0  0
   -9.2760    1.7640   -8.5220 C   0  0  0  0  0  0  0  0  0  0  0  0
   -8.9510    2.3120   -7.2050 N   0  0  0  0  0  0  0  0  0  0  0  0
   -8.6310    3.7330   -7.2330 C   0  0  0  0  0  0  0  0  0  0  0  0
   -8.5780    4.0230   -8.7050 C   0  0  0  0  0  0  0  0  0  0  0  0
   -8.2660    5.2060   -9.3670 C   0  0  0  0  0  0  0  0  0  0  0  0
   -8.2530    5.2530  -10.7490 C   0  0  0  0  0  0  0  0  0  0  0  0
  2  1  2  0
  3  2  1  0
  4  3  2  0
  5  4  1  0
  6  5  1  0
  7  6  2  0
  8  7  1  0
  8  4  1  0
  9  8  2  0
 10  9  1  0
 11 10  2  0
 11  3  1  0
 12  2  1  0
 13 12  1  0
 14 13  2  0
 15 14  1  0
 16 15  1  0
 17 16  1  0
 18 17  1  0
 19 18  1  0
 19 15  2  0
 20 19  1  0
 21 13  1  0
 21 20  2  0
M  END
>  <smiles>  (181) 
O=C(Nc1ccc2c(c1)CNC2)c1cccc2cn[nH]c12

>  <inchikey>  (181) 
NUNDPDNYDUMFHN-UHFFFAOYSA-N

>  <alias>  (181) 
Z3733a

$$$$
Z3743a
     RDKit          3D

 28 31  0  0  0  0  0  0  0  0999 V2000
   -9.9470    3.9900  -18.1980 Br  0  0  0  0  0  0  0  0  0  0  0  0
   -8.5400    4.5380  -17.0350 C   0  0  0  0  0  0  0  0  0  0  0  0
   -8.5810    4.1690  -15.6880 C   0  0  0  0  0  0  0  0  0  0  0  0
   -7.5260    5.3380  -17.5540 C   0  0  0  0  0  0  0  0  0  0  0  0
   -6.5540    5.8250  -16.6780 C   0  0  0  0  0  0  0  0  0  0  0  0
   -6.6000    5.4700  -15.3280 C   0  0  0  0  0  0  0  0  0  0  0  0
   -5.5730    6.1370  -14.7100 N   0  0  0  0  0  0  0  0  0  0  0  0
   -4.9510    6.8490  -15.6770 C   0  0  0  0  0  0  0  0  0  0  0  0
   -5.4860    6.7020  -16.8740 N   0  0  0  0  0  0  0  0  0  0  0  0
   -7.5820    4.6150  -14.8160 C   0  0  0  0  0  0  0  0  0  0  0  0
   -7.4600    4.1450  -13.3690 C   0  0  2  0  0  0  0  0  0  0  0  0
   -6.9250    2.6790  -13.2800 C   0  0  0  0  0  0  0  0  0  0  0  0
   -5.8020    2.5250  -12.5740 N   0  0  0  0  0  0  0  0  0  0  0  0
   -4.7360    3.5180  -12.5390 C   0  0  0  0  0  0  0  0  0  0  0  0
   -3.7720    3.4360  -13.8050 C   0  0  2  0  0  0  0  0  0  0  0  0
   -4.3210    2.6960  -14.8060 F   0  0  0  0  0  0  0  0  0  0  0  0
   -2.6220    2.7950  -13.4680 F   0  0  0  0  0  0  0  0  0  0  0  0
   -7.5310    1.7370  -13.7770 O   0  0  0  0  0  0  0  0  0  0  0  0
   -8.6270    4.3510  -12.5400 N   0  0  0  0  0  0  0  0  0  0  0  0
   -8.5500    4.2750  -11.1490 C   0  0  0  0  0  0  0  0  0  0  0  0
   -8.8310    3.0710  -10.5040 C   0  0  0  0  0  0  0  0  0  0  0  0
   -8.8360    3.0060   -9.1150 C   0  0  0  0  0  0  0  0  0  0  0  0
   -9.0950    1.8310   -8.2180 C   0  0  0  0  0  0  0  0  0  0  0  0
   -8.9710    2.4150   -6.8820 N   0  0  0  0  0  0  0  0  0  0  0  0
   -8.7280    3.8570   -6.9010 C   0  0  0  0  0  0  0  0  0  0  0  0
   -8.5650    4.1420   -8.3640 C   0  0  0  0  0  0  0  0  0  0  0  0
   -8.2590    5.3360   -9.0100 C   0  0  0  0  0  0  0  0  0  0  0  0
   -8.2480    5.4020  -10.3920 C   0  0  0  0  0  0  0  0  0  0  0  0
  2  1  1  0
  3  2  2  0
  4  2  1  0
  5  4  2  0
  6  5  1  0
  7  6  1  0
  8  7  1  0
  9  5  1  0
  9  8  2  0
 10  3  1  0
 10  6  2  0
 11 10  1  0
 12 11  1  0
 13 12  1  0
 14 13  1  0
 15 14  1  0
 15 16  1  6
 17 15  1  0
 18 12  2  0
 11 19  1  6
 20 19  1  0
 21 20  2  0
 22 21  1  0
 23 22  1  0
 24 23  1  0
 25 24  1  0
 26 25  1  0
 26 22  2  0
 27 26  1  0
 28 20  1  0
 28 27  2  0
M  END
>  <smiles>  (182) 
O=C(NCC(F)F)[C@H](Nc1ccc2c(c1)CNC2)c1cc(Br)cc2nc[nH]c12

>  <inchikey>  (182) 
ZDOBRSVSMPMTBA-GOSISDBHSA-N

>  <alias>  (182) 
Z3743a

$$$$
Z3746a
     RDKit          3D

 21 23  0  0  0  0  0  0  0  0999 V2000
   -4.0040    5.3120  -18.8110 O   0  0  0  0  0  0  0  0  0  0  0  0
   -5.1100    5.1470  -18.3000 C   0  0  0  0  0  0  0  0  0  0  0  0
   -6.2470    4.8190  -18.9700 N   0  0  0  0  0  0  0  0  0  0  0  0
   -7.3090    4.5870  -18.0990 C   0  0  0  0  0  0  0  0  0  0  0  0
   -8.5980    4.1520  -18.3840 C   0  0  0  0  0  0  0  0  0  0  0  0
   -9.4860    3.9730  -17.3340 C   0  0  0  0  0  0  0  0  0  0  0  0
   -9.0950    4.2190  -16.0240 C   0  0  0  0  0  0  0  0  0  0  0  0
   -5.4470    5.2010  -16.8250 C   0  0  0  0  0  0  0  0  0  0  0  0
   -6.8980    4.8280  -16.7930 C   0  0  0  0  0  0  0  0  0  0  0  0
   -7.8010    4.6490  -15.7350 C   0  0  0  0  0  0  0  0  0  0  0  0
   -7.4310    4.9180  -14.3010 C   0  0  0  0  0  0  0  0  0  0  0  0
   -6.4110    5.5360  -14.0080 O   0  0  0  0  0  0  0  0  0  0  0  0
   -8.3100    4.4560  -13.3780 N   0  0  0  0  0  0  0  0  0  0  0  0
   -8.2470    4.5940  -11.9720 C   0  0  0  0  0  0  0  0  0  0  0  0
   -7.8160    5.7790  -11.3970 C   0  0  0  0  0  0  0  0  0  0  0  0
   -7.8240    5.9160  -10.0210 C   0  0  0  0  0  0  0  0  0  0  0  0
   -8.2630    4.8750   -9.2170 C   0  0  0  0  0  0  0  0  0  0  0  0
   -8.6890    3.5540  -11.1590 C   0  0  0  0  0  0  0  0  0  0  0  0
   -8.7180    3.6910   -9.7760 C   0  0  0  0  0  0  0  0  0  0  0  0
   -9.3550    2.6320   -8.9110 C   0  0  0  0  0  0  0  0  0  0  0  0
   -8.3970    1.6150   -8.5050 N   0  0  0  0  0  0  0  0  0  0  0  0
  2  1  2  0
  3  2  1  0
  4  3  1  0
  5  4  2  0
  6  5  1  0
  7  6  2  0
  8  2  1  0
  9  4  1  0
  9  8  1  0
 10  9  2  0
 10  7  1  0
 11 10  1  0
 12 11  2  0
 13 11  1  0
 14 13  1  0
 15 14  2  0
 16 15  1  0
 17 16  2  0
 18 14  1  0
 19 18  2  0
 19 17  1  0
 20 19  1  0
 21 20  1  0
M  END
>  <smiles>  (183) 
NCc1cccc(NC(=O)c2cccc3c2CC(=O)N3)c1

>  <inchikey>  (183) 
HQSWEWUQCXVKEY-UHFFFAOYSA-N

>  <alias>  (183) 
Z3746a

$$$$
Z3754a
     RDKit          3D

 29 31  0  0  0  0  0  0  0  0999 V2000
   -2.5610    2.2280  -13.7170 F   0  0  0  0  0  0  0  0  0  0  0  0
   -3.8890    2.4970  -13.8230 C   0  0  2  0  0  0  0  0  0  0  0  0
   -3.9700    3.7480  -14.3500 F   0  0  0  0  0  0  0  0  0  0  0  0
   -4.5290    2.4950  -12.3800 C   0  0  0  0  0  0  0  0  0  0  0  0
   -5.7970    3.2080  -12.4250 N   0  0  0  0  0  0  0  0  0  0  0  0
   -6.8510    2.7520  -13.0990 C   0  0  0  0  0  0  0  0  0  0  0  0
   -6.9600    1.5860  -13.4750 O   0  0  0  0  0  0  0  0  0  0  0  0
   -7.9770    3.7970  -13.3450 C   0  0  2  0  0  0  0  0  0  0  0  0
   -7.8510    4.3400  -14.7640 C   0  0  0  0  0  0  0  0  0  0  0  0
   -8.8660    4.1150  -15.6890 C   0  0  0  0  0  0  0  0  0  0  0  0
   -8.6630    4.4460  -17.0170 C   0  0  0  0  0  0  0  0  0  0  0  0
  -10.0460    4.1240  -18.2770 Br  0  0  0  0  0  0  0  0  0  0  0  0
   -7.4850    5.0130  -17.4530 C   0  0  0  0  0  0  0  0  0  0  0  0
   -6.6720    4.9440  -15.1890 C   0  0  0  0  0  0  0  0  0  0  0  0
   -6.4820    5.2810  -16.5270 C   0  0  0  0  0  0  0  0  0  0  0  0
   -5.2310    5.9420  -17.0140 C   0  0  0  0  0  0  0  0  0  0  0  0
   -4.5970    6.7040  -16.2880 O   0  0  0  0  0  0  0  0  0  0  0  0
   -4.8660    5.6910  -18.2700 N   0  0  0  0  0  0  0  0  0  0  0  0
   -3.8400    6.4660  -18.9420 C   0  0  0  0  0  0  0  0  0  0  0  0
   -8.0810    4.8230  -12.3240 N   0  0  0  0  0  0  0  0  0  0  0  0
   -8.3110    4.5830  -10.9610 C   0  0  0  0  0  0  0  0  0  0  0  0
   -8.6470    3.3170  -10.4760 C   0  0  0  0  0  0  0  0  0  0  0  0
   -8.7950    3.1060   -9.1060 C   0  0  0  0  0  0  0  0  0  0  0  0
   -9.1110    1.8420   -8.3630 C   0  0  0  0  0  0  0  0  0  0  0  0
   -8.9190    2.2430   -6.9700 N   0  0  0  0  0  0  0  0  0  0  0  0
   -8.8290    3.6940   -6.8080 C   0  0  0  0  0  0  0  0  0  0  0  0
   -8.6280    4.1580   -8.2190 C   0  0  0  0  0  0  0  0  0  0  0  0
   -8.3190    5.4240   -8.7050 C   0  0  0  0  0  0  0  0  0  0  0  0
   -8.1580    5.6360  -10.0640 C   0  0  0  0  0  0  0  0  0  0  0  0
  2  1  1  1
  3  2  1  0
  4  2  1  0
  5  4  1  0
  6  5  1  0
  7  6  2  0
  8  6  1  0
  9  8  1  0
 10  9  2  0
 11 10  1  0
 12 11  1  0
 13 11  2  0
 14  9  1  0
 15 13  1  0
 15 14  2  0
 16 15  1  0
 17 16  2  0
 18 16  1  0
 19 18  1  0
  8 20  1  1
 21 20  1  0
 22 21  2  0
 23 22  1  0
 24 23  1  0
 25 24  1  0
 26 25  1  0
 27 26  1  0
 27 23  2  0
 28 27  1  0
 29 21  1  0
 29 28  2  0
M  END
>  <smiles>  (184) 
CNC(=O)c1cc(Br)cc([C@H](Nc2ccc3c(c2)CNC3)C(=O)NCC(F)F)c1

>  <inchikey>  (184) 
ZSXOLMJFELISNG-SFHVURJKSA-N

>  <alias>  (184) 
Z3754a

$$$$
Z3758a
     RDKit          3D

 22 24  0  0  0  0  0  0  0  0999 V2000
   -4.0450    5.3030  -19.1240 O   0  0  0  0  0  0  0  0  0  0  0  0
   -5.1210    5.0800  -18.5750 C   0  0  0  0  0  0  0  0  0  0  0  0
   -6.2540    4.6660  -19.2010 N   0  0  0  0  0  0  0  0  0  0  0  0
   -7.3070    4.4980  -18.3050 C   0  0  0  0  0  0  0  0  0  0  0  0
   -8.6120    4.0920  -18.5520 C   0  0  0  0  0  0  0  0  0  0  0  0
   -9.4780    3.9510  -17.4790 C   0  0  0  0  0  0  0  0  0  0  0  0
   -9.0520    4.2100  -16.1810 C   0  0  0  0  0  0  0  0  0  0  0  0
   -5.4370    5.2180  -17.1010 C   0  0  0  0  0  0  0  0  0  0  0  0
   -6.8650    4.7730  -17.0150 C   0  0  0  0  0  0  0  0  0  0  0  0
   -7.7460    4.6270  -15.9320 C   0  0  0  0  0  0  0  0  0  0  0  0
   -7.3390    4.9500  -14.5220 C   0  0  0  0  0  0  0  0  0  0  0  0
   -6.4050    5.7140  -14.2950 O   0  0  0  0  0  0  0  0  0  0  0  0
   -8.1500    4.4640  -13.5480 N   0  0  0  0  0  0  0  0  0  0  0  0
   -8.1720    4.8590  -12.1870 C   0  0  0  0  0  0  0  0  0  0  0  0
   -7.9750    6.2080  -11.9240 C   0  0  0  0  0  0  0  0  0  0  0  0
   -8.0150    6.6650  -10.6210 C   0  0  0  0  0  0  0  0  0  0  0  0
   -8.2570    5.7880   -9.5790 C   0  0  0  0  0  0  0  0  0  0  0  0
   -8.4050    3.9790  -11.1330 C   0  0  0  0  0  0  0  0  0  0  0  0
   -8.4520    4.4350   -9.8180 C   0  0  0  0  0  0  0  0  0  0  0  0
   -8.6810    3.4880   -8.6620 C   0  0  0  0  0  0  0  0  0  0  0  0
   -9.0810    2.0610   -9.0490 C   0  0  0  0  0  0  0  0  0  0  0  0
   -8.9910    1.2580   -7.8240 N   0  0  0  0  0  0  0  0  0  0  0  0
  2  1  2  0
  3  2  1  0
  4  3  1  0
  5  4  2  0
  6  5  1  0
  7  6  2  0
  8  2  1  0
  9  4  1  0
  9  8  1  0
 10  9  2  0
 10  7  1  0
 11 10  1  0
 12 11  2  0
 13 11  1  0
 14 13  1  0
 15 14  2  0
 16 15  1  0
 17 16  2  0
 18 14  1  0
 19 18  2  0
 19 17  1  0
 20 19  1  0
 21 20  1  0
 22 21  1  0
M  END
>  <smiles>  (185) 
NCCc1cccc(NC(=O)c2cccc3c2CC(=O)N3)c1

>  <inchikey>  (185) 
SHWUFEVHIVZGKD-UHFFFAOYSA-N

>  <alias>  (185) 
Z3758a

$$$$
Z3767a
     RDKit          3D

 28 31  0  0  0  0  0  0  0  0999 V2000
  -10.2520    3.9470  -18.2160 Br  0  0  0  0  0  0  0  0  0  0  0  0
   -8.6900    4.3990  -17.2280 C   0  0  0  0  0  0  0  0  0  0  0  0
   -8.6830    4.2380  -15.8470 C   0  0  0  0  0  0  0  0  0  0  0  0
   -7.6230    4.9540  -17.8940 C   0  0  0  0  0  0  0  0  0  0  0  0
   -6.5440    5.4160  -17.1630 C   0  0  0  0  0  0  0  0  0  0  0  0
   -6.5110    5.2950  -15.7760 C   0  0  0  0  0  0  0  0  0  0  0  0
   -5.3540    5.9420  -15.0250 C   0  0  2  0  0  0  0  0  0  0  0  0
   -4.1770    6.5000  -15.7860 C   0  0  0  0  0  0  0  0  0  0  0  0
   -3.9940    5.2960  -14.9350 C   0  0  0  0  0  0  0  0  0  0  0  0
   -7.5730    4.6590  -15.1100 C   0  0  0  0  0  0  0  0  0  0  0  0
   -7.4800    4.3630  -13.6130 C   0  0  2  0  0  0  0  0  0  0  0  0
   -6.6300    3.0990  -13.3100 C   0  0  0  0  0  0  0  0  0  0  0  0
   -5.6940    3.2720  -12.3780 N   0  0  0  0  0  0  0  0  0  0  0  0
   -4.5290    2.4120  -12.2530 C   0  0  0  0  0  0  0  0  0  0  0  0
   -3.5470    2.8160  -13.3840 C   0  0  1  0  0  0  0  0  0  0  0  0
   -2.3000    2.4190  -13.0220 F   0  0  0  0  0  0  0  0  0  0  0  0
   -3.8700    2.0610  -14.4630 F   0  0  0  0  0  0  0  0  0  0  0  0
   -6.8790    2.0110  -13.8140 O   0  0  0  0  0  0  0  0  0  0  0  0
   -8.7230    4.2560  -12.8780 N   0  0  0  0  0  0  0  0  0  0  0  0
   -8.6880    4.2040  -11.4790 C   0  0  0  0  0  0  0  0  0  0  0  0
   -8.9700    3.0210  -10.7940 C   0  0  0  0  0  0  0  0  0  0  0  0
   -8.9130    2.9900   -9.4040 C   0  0  0  0  0  0  0  0  0  0  0  0
   -9.1910    1.8560   -8.4630 C   0  0  0  0  0  0  0  0  0  0  0  0
   -8.7810    2.4250   -7.1840 N   0  0  0  0  0  0  0  0  0  0  0  0
   -8.6720    3.8850   -7.2190 C   0  0  0  0  0  0  0  0  0  0  0  0
   -8.5810    4.1350   -8.6950 C   0  0  0  0  0  0  0  0  0  0  0  0
   -8.2810    5.3060   -9.3820 C   0  0  0  0  0  0  0  0  0  0  0  0
   -8.3320    5.3410  -10.7630 C   0  0  0  0  0  0  0  0  0  0  0  0
  2  1  1  0
  3  2  2  0
  4  2  1  0
  5  4  2  0
  6  5  1  0
  7  6  1  6
  8  7  1  0
  9  8  1  0
  9  7  1  0
 10  6  2  0
 10  3  1  0
 11 10  1  0
 12 11  1  0
 13 12  1  0
 14 13  1  0
 15 14  1  0
 15 16  1  1
 17 15  1  0
 18 12  2  0
 11 19  1  6
 20 19  1  0
 21 20  2  0
 22 21  1  0
 23 22  1  0
 24 23  1  0
 25 24  1  0
 26 25  1  0
 26 22  2  0
 27 26  1  0
 28 20  1  0
 28 27  2  0
M  END
>  <smiles>  (186) 
O=C(NCC(F)F)[C@H](Nc1ccc2c(c1)CNC2)c1cc(Br)ccc1C1CC1

>  <inchikey>  (186) 
QTIMWYOVVQRTJT-HXUWFJFHSA-N

>  <alias>  (186) 
Z3767a

$$$$
Z3769a
     RDKit          3D

 29 32  0  0  0  0  0  0  0  0999 V2000
  -10.3150    3.9370  -18.2060 Br  0  0  0  0  0  0  0  0  0  0  0  0
   -8.7470    4.4860  -17.2780 C   0  0  0  0  0  0  0  0  0  0  0  0
   -8.7050    4.3680  -15.8970 C   0  0  0  0  0  0  0  0  0  0  0  0
   -7.7130    4.9990  -17.9920 C   0  0  0  0  0  0  0  0  0  0  0  0
   -6.5630    5.4550  -17.3180 C   0  0  0  0  0  0  0  0  0  0  0  0
   -6.5040    5.3700  -15.8940 C   0  0  0  0  0  0  0  0  0  0  0  0
   -5.3340    5.8610  -15.2550 C   0  0  0  0  0  0  0  0  0  0  0  0
   -4.2920    6.3700  -15.9750 C   0  0  0  0  0  0  0  0  0  0  0  0
   -4.3470    6.4220  -17.3530 C   0  0  0  0  0  0  0  0  0  0  0  0
   -5.4530    5.9860  -18.0200 C   0  0  0  0  0  0  0  0  0  0  0  0
   -7.6020    4.7830  -15.1850 C   0  0  0  0  0  0  0  0  0  0  0  0
   -7.4690    4.5490  -13.6800 C   0  0  2  0  0  0  0  0  0  0  0  0
   -6.6880    3.2690  -13.3920 C   0  0  0  0  0  0  0  0  0  0  0  0
   -5.5950    3.4430  -12.6560 N   0  0  0  0  0  0  0  0  0  0  0  0
   -4.6690    2.3590  -12.3830 C   0  0  0  0  0  0  0  0  0  0  0  0
   -3.7410    2.1940  -13.6330 C   0  0  1  0  0  0  0  0  0  0  0  0
   -3.3290    3.4260  -14.0370 F   0  0  0  0  0  0  0  0  0  0  0  0
   -2.6170    1.5380  -13.2410 F   0  0  0  0  0  0  0  0  0  0  0  0
   -7.0900    2.1680  -13.7480 O   0  0  0  0  0  0  0  0  0  0  0  0
   -8.6780    4.5100  -12.8860 N   0  0  0  0  0  0  0  0  0  0  0  0
   -8.5930    4.4370  -11.4940 C   0  0  0  0  0  0  0  0  0  0  0  0
   -8.9650    3.2730  -10.8250 C   0  0  0  0  0  0  0  0  0  0  0  0
   -8.8890    3.2070   -9.4370 C   0  0  0  0  0  0  0  0  0  0  0  0
   -9.2010    2.0640   -8.5170 C   0  0  0  0  0  0  0  0  0  0  0  0
   -8.8060    2.5960   -7.2160 N   0  0  0  0  0  0  0  0  0  0  0  0
   -8.5240    4.0270   -7.2410 C   0  0  0  0  0  0  0  0  0  0  0  0
   -8.4540    4.3070   -8.7130 C   0  0  0  0  0  0  0  0  0  0  0  0
   -8.0680    5.4640   -9.3840 C   0  0  0  0  0  0  0  0  0  0  0  0
   -8.1340    5.5300  -10.7640 C   0  0  0  0  0  0  0  0  0  0  0  0
  2  1  1  0
  3  2  2  0
  4  2  1  0
  5  4  2  0
  6  5  1  0
  7  6  1  0
  8  7  2  0
  9  8  1  0
 10  5  1  0
 10  9  2  0
 11  6  2  0
 11  3  1  0
 12 11  1  0
 13 12  1  0
 14 13  1  0
 15 14  1  0
 16 15  1  0
 16 17  1  1
 18 16  1  0
 19 13  2  0
 12 20  1  6
 21 20  1  0
 22 21  2  0
 23 22  1  0
 24 23  1  0
 25 24  1  0
 26 25  1  0
 27 26  1  0
 27 23  2  0
 28 27  1  0
 29 21  1  0
 29 28  2  0
M  END
>  <smiles>  (187) 
O=C(NCC(F)F)[C@H](Nc1ccc2c(c1)CNC2)c1cc(Br)cc2ccccc12

>  <inchikey>  (187) 
YZHYFSVMHGIKTO-OAQYLSRUSA-N

>  <alias>  (187) 
Z3769a

$$$$
Z3774a
     RDKit          3D

 28 31  0  0  0  0  0  0  0  0999 V2000
   -9.8940    4.0280  -17.9310 Cl  0  0  0  0  0  0  0  0  0  0  0  0
   -8.5490    4.5770  -16.9580 C   0  0  0  0  0  0  0  0  0  0  0  0
   -8.5480    4.3340  -15.5920 C   0  0  0  0  0  0  0  0  0  0  0  0
   -7.5060    5.2330  -17.5780 C   0  0  0  0  0  0  0  0  0  0  0  0
   -6.4270    5.6760  -16.8230 C   0  0  0  0  0  0  0  0  0  0  0  0
   -5.2200    6.2910  -17.4970 C   0  0  1  0  0  0  0  0  0  0  0  0
   -4.1690    5.4310  -18.1460 C   0  0  0  0  0  0  0  0  0  0  0  0
   -5.0660    6.2540  -18.9930 C   0  0  0  0  0  0  0  0  0  0  0  0
   -6.4430    5.4560  -15.4510 C   0  0  0  0  0  0  0  0  0  0  0  0
   -7.4730    4.7710  -14.8200 C   0  0  0  0  0  0  0  0  0  0  0  0
   -7.3550    4.4470  -13.3350 C   0  0  2  0  0  0  0  0  0  0  0  0
   -6.7470    3.0670  -13.1050 C   0  0  0  0  0  0  0  0  0  0  0  0
   -5.6980    3.0620  -12.2880 N   0  0  0  0  0  0  0  0  0  0  0  0
   -4.5160    2.2590  -12.5440 C   0  0  0  0  0  0  0  0  0  0  0  0
   -3.7050    2.9700  -13.6650 C   0  0  1  0  0  0  0  0  0  0  0  0
   -2.4950    2.3610  -13.7490 F   0  0  0  0  0  0  0  0  0  0  0  0
   -4.3310    2.7040  -14.8400 F   0  0  0  0  0  0  0  0  0  0  0  0
   -7.2240    2.0470  -13.5940 O   0  0  0  0  0  0  0  0  0  0  0  0
   -8.5110    4.6340  -12.4840 N   0  0  0  0  0  0  0  0  0  0  0  0
   -8.4360    4.4950  -11.0970 C   0  0  0  0  0  0  0  0  0  0  0  0
   -8.7260    3.2810  -10.4810 C   0  0  0  0  0  0  0  0  0  0  0  0
   -8.7110    3.1890   -9.0940 C   0  0  0  0  0  0  0  0  0  0  0  0
   -8.9520    2.0040   -8.2080 C   0  0  0  0  0  0  0  0  0  0  0  0
   -8.7020    2.5250   -6.8690 N   0  0  0  0  0  0  0  0  0  0  0  0
   -8.5150    3.9680   -6.9080 C   0  0  0  0  0  0  0  0  0  0  0  0
   -8.4150    4.3450   -8.3510 C   0  0  0  0  0  0  0  0  0  0  0  0
   -8.1250    5.5190   -8.9370 N   0  0  0  0  0  0  0  0  0  0  0  0
   -8.1320    5.5750  -10.2750 C   0  0  0  0  0  0  0  0  0  0  0  0
  2  1  1  0
  3  2  2  0
  4  2  1  0
  5  4  2  0
  6  5  1  6
  7  6  1  0
  8  7  1  0
  8  6  1  0
  9  5  1  0
 10  3  1  0
 10  9  2  0
 11 10  1  0
 12 11  1  0
 13 12  1  0
 14 13  1  0
 15 14  1  0
 15 16  1  6
 17 15  1  0
 18 12  2  0
 11 19  1  6
 20 19  1  0
 21 20  2  0
 22 21  1  0
 23 22  1  0
 24 23  1  0
 25 24  1  0
 26 25  1  0
 26 22  2  0
 27 26  1  0
 28 20  1  0
 28 27  2  0
M  END
>  <smiles>  (188) 
O=C(NCC(F)F)[C@H](Nc1cnc2c(c1)CNC2)c1cc(Cl)cc(C2CC2)c1

>  <inchikey>  (188) 
MFDMWFRKMOCKSW-LJQANCHMSA-N

>  <alias>  (188) 
Z3774a

$$$$
Z3790a
     RDKit          3D

 29 33  0  0  0  0  0  0  0  0999 V2000
   -6.7580    5.7190  -12.5460 O   0  0  0  0  0  0  0  0  0  0  0  0
   -7.4120    4.8380  -13.1000 C   0  0  0  0  0  0  0  0  0  0  0  0
   -8.1700    3.9470  -12.4210 N   0  0  0  0  0  0  0  0  0  0  0  0
   -8.3360    3.9260  -11.0150 C   0  0  0  0  0  0  0  0  0  0  0  0
   -8.7300    2.7940  -10.3050 C   0  0  0  0  0  0  0  0  0  0  0  0
   -8.7780    2.8260   -8.9120 C   0  0  0  0  0  0  0  0  0  0  0  0
   -9.0770    1.7190   -7.9450 C   0  0  0  0  0  0  0  0  0  0  0  0
   -8.7700    2.3510   -6.6540 N   0  0  0  0  0  0  0  0  0  0  0  0
   -8.5890    3.7970   -6.7490 C   0  0  0  0  0  0  0  0  0  0  0  0
   -8.4590    3.9940   -8.2300 C   0  0  0  0  0  0  0  0  0  0  0  0
   -8.0780    5.1240   -8.9420 C   0  0  0  0  0  0  0  0  0  0  0  0
   -8.0170    5.0910  -10.3240 C   0  0  0  0  0  0  0  0  0  0  0  0
   -7.3910    4.7030  -14.5890 C   0  0  0  0  0  0  0  0  0  0  0  0
   -8.3750    4.1340  -15.3940 C   0  0  0  0  0  0  0  0  0  0  0  0
   -6.2780    5.2880  -15.1770 C   0  0  0  0  0  0  0  0  0  0  0  0
   -6.1220    5.3030  -16.5480 C   0  0  0  0  0  0  0  0  0  0  0  0
   -7.0940    4.7550  -17.3760 C   0  0  0  0  0  0  0  0  0  0  0  0
   -8.2310    4.1830  -16.7780 C   0  0  0  0  0  0  0  0  0  0  0  0
   -9.3750    3.6490  -17.9730 S   0  0  0  0  0  0  0  0  0  0  0  0
   -8.3430    4.1640  -19.2520 C   0  0  0  0  0  0  0  0  0  0  0  0
   -7.1710    4.7200  -18.8260 C   0  0  0  0  0  0  0  0  0  0  0  0
   -6.1010    5.1820  -19.7520 C   0  0  0  0  0  0  0  0  0  0  0  0
   -5.6860    4.3900  -20.8220 C   0  0  0  0  0  0  0  0  0  0  0  0
   -4.6810    4.8190  -21.6700 C   0  0  0  0  0  0  0  0  0  0  0  0
   -5.4870    6.4160  -19.5690 C   0  0  0  0  0  0  0  0  0  0  0  0
   -4.4890    6.8390  -20.4280 C   0  0  0  0  0  0  0  0  0  0  0  0
   -4.0700    6.0500  -21.4870 C   0  0  0  0  0  0  0  0  0  0  0  0
   -2.9930    6.5310  -22.4130 C   0  0  0  0  0  0  0  0  0  0  0  0
   -1.9180    7.1270  -21.6170 N   0  0  0  0  0  0  0  0  0  0  0  0
  2  1  2  0
  3  2  1  0
  4  3  1  0
  5  4  2  0
  6  5  1  0
  7  6  1  0
  8  7  1  0
  9  8  1  0
 10  9  1  0
 10  6  2  0
 11 10  1  0
 12  4  1  0
 12 11  2  0
 13  2  1  0
 14 13  2  0
 15 13  1  0
 16 15  2  0
 17 16  1  0
 18 17  2  0
 18 14  1  0
 19 18  1  0
 20 19  1  0
 21 20  2  0
 21 17  1  0
 22 21  1  0
 23 22  2  0
 24 23  1  0
 25 22  1  0
 26 25  2  0
 27 24  2  0
 27 26  1  0
 28 27  1  0
 29 28  1  0
M  END
>  <smiles>  (189) 
NCc1ccc(-c2csc3cc(C(=O)Nc4ccc5c(c4)CNC5)ccc23)cc1

>  <inchikey>  (189) 
GOHRAXAGQILAHI-UHFFFAOYSA-N

>  <alias>  (189) 
Z3790a

$$$$
Z3792a
     RDKit          3D

 24 28  0  0  0  0  0  0  0  0999 V2000
   -6.4630    5.2860  -13.2410 O   0  0  0  0  0  0  0  0  0  0  0  0
   -7.4060    4.6500  -13.7070 C   0  0  0  0  0  0  0  0  0  0  0  0
   -7.5810    4.5070  -15.1910 C   0  0  0  0  0  0  0  0  0  0  0  0
   -6.5660    4.8660  -16.0940 C   0  0  0  0  0  0  0  0  0  0  0  0
   -5.2630    5.2650  -15.8670 N   0  0  0  0  0  0  0  0  0  0  0  0
   -4.6370    5.4320  -17.0880 C   0  0  0  0  0  0  0  0  0  0  0  0
   -3.2360    5.6500  -17.5750 C   0  0  0  0  0  0  0  0  0  0  0  0
   -3.3560    5.5320  -19.1030 C   0  0  0  0  0  0  0  0  0  0  0  0
   -4.8490    5.4240  -19.4410 C   0  0  0  0  0  0  0  0  0  0  0  0
   -5.5190    5.1900  -18.0990 C   0  0  0  0  0  0  0  0  0  0  0  0
   -6.7600    4.7970  -17.4880 C   0  0  0  0  0  0  0  0  0  0  0  0
   -7.9770    4.3340  -17.9810 C   0  0  0  0  0  0  0  0  0  0  0  0
   -8.9780    3.9610  -17.0950 C   0  0  0  0  0  0  0  0  0  0  0  0
   -8.7860    4.0450  -15.7210 C   0  0  0  0  0  0  0  0  0  0  0  0
   -8.3290    4.0180  -12.9380 N   0  0  0  0  0  0  0  0  0  0  0  0
   -8.3810    3.9870  -11.5220 C   0  0  0  0  0  0  0  0  0  0  0  0
   -8.6720    2.8020  -10.8500 C   0  0  0  0  0  0  0  0  0  0  0  0
   -8.7630    2.7930   -9.4610 C   0  0  0  0  0  0  0  0  0  0  0  0
   -9.0910    1.6590   -8.5360 C   0  0  0  0  0  0  0  0  0  0  0  0
   -8.7660    2.2410   -7.2370 N   0  0  0  0  0  0  0  0  0  0  0  0
   -8.6570    3.7010   -7.2670 C   0  0  0  0  0  0  0  0  0  0  0  0
   -8.5370    3.9580   -8.7390 C   0  0  0  0  0  0  0  0  0  0  0  0
   -8.2390    5.1390   -9.4150 C   0  0  0  0  0  0  0  0  0  0  0  0
   -8.1680    5.1560  -10.7960 C   0  0  0  0  0  0  0  0  0  0  0  0
  2  1  2  0
  3  2  1  0
  4  3  2  0
  5  4  1  0
  6  5  1  0
  7  6  1  0
  8  7  1  0
  9  8  1  0
 10  9  1  0
 10  6  2  0
 11 10  1  0
 11  4  1  0
 12 11  2  0
 13 12  1  0
 14 13  2  0
 14  3  1  0
 15  2  1  0
 16 15  1  0
 17 16  2  0
 18 17  1  0
 19 18  1  0
 20 19  1  0
 21 20  1  0
 22 21  1  0
 22 18  2  0
 23 22  1  0
 24 16  1  0
 24 23  2  0
M  END
>  <smiles>  (190) 
O=C(Nc1ccc2c(c1)CNC2)c1cccc2c3c([nH]c12)CCC3

>  <inchikey>  (190) 
JWOQOAUDGHYUDO-UHFFFAOYSA-N

>  <alias>  (190) 
Z3792a

$$$$
Z3799a
     RDKit          3D

 24 27  0  0  0  0  0  0  0  0999 V2000
   -6.7270    6.0510  -14.3340 O   0  0  0  0  0  0  0  0  0  0  0  0
   -7.2850    4.9770  -14.5480 C   0  0  0  0  0  0  0  0  0  0  0  0
   -7.7530    4.6160  -15.9270 C   0  0  0  0  0  0  0  0  0  0  0  0
   -6.9300    4.7890  -17.0450 C   0  0  0  0  0  0  0  0  0  0  0  0
   -5.5180    5.2640  -17.1850 C   0  0  0  0  0  0  0  0  0  0  0  0
   -9.0420    4.1200  -16.1130 C   0  0  0  0  0  0  0  0  0  0  0  0
   -9.5040    3.8080  -17.3850 C   0  0  0  0  0  0  0  0  0  0  0  0
   -8.6930    3.9800  -18.4970 C   0  0  0  0  0  0  0  0  0  0  0  0
   -7.4040    4.4680  -18.3110 C   0  0  0  0  0  0  0  0  0  0  0  0
   -6.3960    4.6710  -19.2480 N   0  0  0  0  0  0  0  0  0  0  0  0
   -5.2550    5.1270  -18.6680 C   0  0  0  0  0  0  0  0  0  0  0  0
   -4.2090    5.3820  -19.2590 O   0  0  0  0  0  0  0  0  0  0  0  0
   -7.4890    4.0700  -13.5800 N   0  0  0  0  0  0  0  0  0  0  0  0
   -8.4140    4.3010  -12.4700 C   0  0  1  0  0  0  0  0  0  0  0  0
   -8.3460    3.1960  -11.4030 C   0  0  0  0  0  0  0  0  0  0  0  0
   -8.0950    3.9210  -10.1590 N   0  0  0  0  0  0  0  0  0  0  0  0
   -7.4900    5.2220  -10.4320 C   0  0  0  0  0  0  0  0  0  0  0  0
   -8.1540    5.6330  -11.7320 C   0  0  0  0  0  0  0  0  0  0  0  0
   -8.3920    3.4690   -8.8900 C   0  0  0  0  0  0  0  0  0  0  0  0
   -8.6590    2.1600   -8.7720 N   0  0  0  0  0  0  0  0  0  0  0  0
   -8.9320    1.6970   -7.5440 C   0  0  0  0  0  0  0  0  0  0  0  0
   -8.9440    2.4830   -6.4150 C   0  0  0  0  0  0  0  0  0  0  0  0
   -8.6780    3.8220   -6.5520 C   0  0  0  0  0  0  0  0  0  0  0  0
   -8.3960    4.3470   -7.7990 C   0  0  0  0  0  0  0  0  0  0  0  0
  2  1  2  0
  3  2  1  0
  4  3  2  0
  5  4  1  0
  6  3  1  0
  7  6  2  0
  8  7  1  0
  9  8  2  0
  9  4  1  0
 10  9  1  0
 11 10  1  0
 11  5  1  0
 12 11  2  0
 13  2  1  0
 14 13  1  6
 15 14  1  0
 16 15  1  0
 17 16  1  0
 18 14  1  0
 18 17  1  0
 19 16  1  0
 20 19  2  0
 21 20  1  0
 22 21  2  0
 23 22  1  0
 24 23  2  0
 24 19  1  0
M  END
>  <smiles>  (191) 
O=C1Cc2c(cccc2C(=O)N[C@@H]2CCN(c3ccccn3)C2)N1

>  <inchikey>  (191) 
HAZUYGZWRQNNJE-GFCCVEGCSA-N

>  <alias>  (191) 
Z3799a

$$$$
Z3802a
     RDKit          3D

 29 32  0  0  0  0  0  0  0  0999 V2000
   -7.0590    5.9800  -13.1500 O   0  0  0  0  0  0  0  0  0  0  0  0
   -7.6420    5.0300  -13.6640 C   0  0  0  0  0  0  0  0  0  0  0  0
   -7.6770    4.8680  -15.1560 C   0  0  0  0  0  0  0  0  0  0  0  0
   -8.8610    4.4240  -15.7540 C   0  0  0  0  0  0  0  0  0  0  0  0
   -8.9030    4.3010  -17.1270 C   0  0  0  0  0  0  0  0  0  0  0  0
  -10.0520    3.8510  -17.6960 F   0  0  0  0  0  0  0  0  0  0  0  0
   -7.8390    4.5860  -17.9500 C   0  0  0  0  0  0  0  0  0  0  0  0
   -6.5660    5.1610  -15.9520 C   0  0  0  0  0  0  0  0  0  0  0  0
   -6.6670    5.0040  -17.3300 C   0  0  0  0  0  0  0  0  0  0  0  0
   -5.4220    5.2310  -17.9160 N   0  0  0  0  0  0  0  0  0  0  0  0
   -4.4760    5.5370  -16.9960 C   0  0  0  0  0  0  0  0  0  0  0  0
   -3.2950    5.7660  -17.2130 O   0  0  0  0  0  0  0  0  0  0  0  0
   -5.1490    5.5750  -15.6160 C   0  0  2  0  0  0  0  0  0  0  0  0
   -4.6490    4.5270  -14.7570 O   0  0  0  0  0  0  0  0  0  0  0  0
   -3.8390    4.8820  -13.6200 C   0  0  0  0  0  0  0  0  0  0  0  0
   -4.2900    4.0360  -12.4470 C   0  0  0  0  0  0  0  0  0  0  0  0
   -4.2070    4.8430  -11.1400 C   0  0  0  0  0  0  0  0  0  0  0  0
   -4.9740    6.0450  -11.0910 O   0  0  0  0  0  0  0  0  0  0  0  0
   -5.0680    6.9990  -15.0540 C   0  0  0  0  0  0  0  0  0  0  0  0
   -8.3040    4.0880  -12.9430 N   0  0  0  0  0  0  0  0  0  0  0  0
   -8.4480    4.0470  -11.5310 C   0  0  0  0  0  0  0  0  0  0  0  0
   -8.7420    2.8500  -10.8800 C   0  0  0  0  0  0  0  0  0  0  0  0
   -8.8510    2.8180   -9.4930 C   0  0  0  0  0  0  0  0  0  0  0  0
   -9.2310    1.6790   -8.5940 C   0  0  0  0  0  0  0  0  0  0  0  0
   -8.9400    2.2330   -7.2750 N   0  0  0  0  0  0  0  0  0  0  0  0
   -8.7550    3.6830   -7.2830 C   0  0  0  0  0  0  0  0  0  0  0  0
   -8.6420    3.9720   -8.7500 C   0  0  0  0  0  0  0  0  0  0  0  0
   -8.3580    5.1670   -9.4020 C   0  0  0  0  0  0  0  0  0  0  0  0
   -8.2700    5.2080  -10.7820 C   0  0  0  0  0  0  0  0  0  0  0  0
  2  1  2  0
  3  2  1  0
  4  3  2  0
  5  4  1  0
  6  5  1  0
  7  5  2  0
  8  3  1  0
  9  7  1  0
  9  8  2  0
 10  9  1  0
 11 10  1  0
 12 11  2  0
 13  8  1  0
 13 11  1  0
 14 13  1  0
 15 14  1  0
 16 15  1  0
 17 16  1  0
 18 17  1  0
 13 19  1  1
 20  2  1  0
 21 20  1  0
 22 21  2  0
 23 22  1  0
 24 23  1  0
 25 24  1  0
 26 25  1  0
 27 26  1  0
 27 23  2  0
 28 27  1  0
 29 21  1  0
 29 28  2  0
M  END
>  <smiles>  (192) 
C[C@]1(OCCCO)C(=O)Nc2cc(F)cc(C(=O)Nc3ccc4c(c3)CNC4)c21

>  <inchikey>  (192) 
JPBNOOYFKLIKNL-OAQYLSRUSA-N

>  <alias>  (192) 
Z3802a

$$$$
Z3803a
     RDKit          3D

 29 32  0  0  0  0  0  0  0  0999 V2000
   -7.6420    6.2010  -13.0780 O   0  0  0  0  0  0  0  0  0  0  0  0
   -7.9630    5.1070  -13.5390 C   0  0  0  0  0  0  0  0  0  0  0  0
   -7.8510    4.8440  -15.0100 C   0  0  0  0  0  0  0  0  0  0  0  0
   -8.9850    4.4560  -15.7280 C   0  0  0  0  0  0  0  0  0  0  0  0
   -8.9110    4.3900  -17.1010 C   0  0  0  0  0  0  0  0  0  0  0  0
  -10.0170    3.9860  -17.7800 F   0  0  0  0  0  0  0  0  0  0  0  0
   -7.7760    4.6920  -17.8240 C   0  0  0  0  0  0  0  0  0  0  0  0
   -6.6710    5.1180  -15.6940 C   0  0  0  0  0  0  0  0  0  0  0  0
   -6.6570    5.0580  -17.0830 C   0  0  0  0  0  0  0  0  0  0  0  0
   -5.3990    5.4410  -17.5510 N   0  0  0  0  0  0  0  0  0  0  0  0
   -4.5420    5.7130  -16.5370 C   0  0  0  0  0  0  0  0  0  0  0  0
   -3.3650    6.0280  -16.6460 O   0  0  0  0  0  0  0  0  0  0  0  0
   -5.2950    5.5070  -15.2070 C   0  0  2  0  0  0  0  0  0  0  0  0
   -4.6290    4.3980  -14.3860 C   0  0  0  0  0  0  0  0  0  0  0  0
   -5.4600    6.7000  -14.4170 O   0  0  0  0  0  0  0  0  0  0  0  0
   -4.3060    7.2260  -13.7190 C   0  0  0  0  0  0  0  0  0  0  0  0
   -4.7770    7.8930  -12.4480 C   0  0  0  0  0  0  0  0  0  0  0  0
   -4.7750    7.0180  -11.3230 O   0  0  0  0  0  0  0  0  0  0  0  0
   -4.9620    7.7090  -10.0920 C   0  0  0  0  0  0  0  0  0  0  0  0
   -8.3850    4.0690  -12.7730 N   0  0  0  0  0  0  0  0  0  0  0  0
   -8.4990    4.0400  -11.3600 C   0  0  0  0  0  0  0  0  0  0  0  0
   -8.7940    2.8430  -10.7110 C   0  0  0  0  0  0  0  0  0  0  0  0
   -8.8550    2.7980   -9.3210 C   0  0  0  0  0  0  0  0  0  0  0  0
   -9.1410    1.6360   -8.4170 C   0  0  0  0  0  0  0  0  0  0  0  0
   -8.8400    2.1970   -7.1000 N   0  0  0  0  0  0  0  0  0  0  0  0
   -8.7280    3.6540   -7.1090 C   0  0  0  0  0  0  0  0  0  0  0  0
   -8.6250    3.9460   -8.5770 C   0  0  0  0  0  0  0  0  0  0  0  0
   -8.3380    5.1420   -9.2270 C   0  0  0  0  0  0  0  0  0  0  0  0
   -8.2790    5.1910  -10.6070 C   0  0  0  0  0  0  0  0  0  0  0  0
  2  1  2  0
  3  2  1  0
  4  3  2  0
  5  4  1  0
  6  5  1  0
  7  5  2  0
  8  3  1  0
  9  7  1  0
  9  8  2  0
 10  9  1  0
 11 10  1  0
 12 11  2  0
 13  8  1  0
 13 11  1  0
 13 14  1  1
 15 13  1  0
 16 15  1  0
 17 16  1  0
 18 17  1  0
 19 18  1  0
 20  2  1  0
 21 20  1  0
 22 21  2  0
 23 22  1  0
 24 23  1  0
 25 24  1  0
 26 25  1  0
 27 26  1  0
 27 23  2  0
 28 27  1  0
 29 21  1  0
 29 28  2  0
M  END
>  <smiles>  (193) 
COCCO[C@]1(C)C(=O)Nc2cc(F)cc(C(=O)Nc3ccc4c(c3)CNC4)c21

>  <inchikey>  (193) 
WKTXHLAVUMPZNH-NRFANRHFSA-N

>  <alias>  (193) 
Z3803a

$$$$
Z3808a
     RDKit          3D

 22 25  0  0  0  0  0  0  0  0999 V2000
  -10.2270    3.7150  -17.4850 F   0  0  0  0  0  0  0  0  0  0  0  0
   -9.0400    4.2070  -17.0430 C   0  0  0  0  0  0  0  0  0  0  0  0
   -8.8530    4.3360  -15.6870 C   0  0  0  0  0  0  0  0  0  0  0  0
   -8.0830    4.5130  -17.9750 C   0  0  0  0  0  0  0  0  0  0  0  0
   -6.8580    4.9660  -17.5030 C   0  0  0  0  0  0  0  0  0  0  0  0
   -6.5870    5.1080  -16.1270 C   0  0  0  0  0  0  0  0  0  0  0  0
   -5.2490    5.5670  -16.0790 C   0  0  0  0  0  0  0  0  0  0  0  0
   -4.7400    5.7050  -17.2880 N   0  0  0  0  0  0  0  0  0  0  0  0
   -5.7280    5.3370  -18.1570 N   0  0  0  0  0  0  0  0  0  0  0  0
   -7.6150    4.7870  -15.2180 C   0  0  0  0  0  0  0  0  0  0  0  0
   -7.4160    4.9130  -13.7350 C   0  0  0  0  0  0  0  0  0  0  0  0
   -6.3660    5.3500  -13.2720 O   0  0  0  0  0  0  0  0  0  0  0  0
   -8.4280    4.4520  -12.9610 N   0  0  0  0  0  0  0  0  0  0  0  0
   -8.4320    4.3250  -11.5520 C   0  0  0  0  0  0  0  0  0  0  0  0
   -8.7440    3.1020  -10.9760 C   0  0  0  0  0  0  0  0  0  0  0  0
   -8.7990    2.9850   -9.5920 C   0  0  0  0  0  0  0  0  0  0  0  0
   -9.1590    1.7960   -8.7520 C   0  0  0  0  0  0  0  0  0  0  0  0
   -9.2660    2.3750   -7.4220 N   0  0  0  0  0  0  0  0  0  0  0  0
   -8.7110    3.7260   -7.3840 C   0  0  0  0  0  0  0  0  0  0  0  0
   -8.5150    4.1180   -8.8120 C   0  0  0  0  0  0  0  0  0  0  0  0
   -8.1800    5.2980   -9.3600 N   0  0  0  0  0  0  0  0  0  0  0  0
   -8.1550    5.3860  -10.6970 C   0  0  0  0  0  0  0  0  0  0  0  0
  2  1  1  0
  3  2  2  0
  4  2  1  0
  5  4  2  0
  6  5  1  0
  7  6  1  0
  8  7  2  0
  9  5  1  0
  9  8  1  0
 10  6  2  0
 10  3  1  0
 11 10  1  0
 12 11  2  0
 13 11  1  0
 14 13  1  0
 15 14  2  0
 16 15  1  0
 17 16  1  0
 18 17  1  0
 19 18  1  0
 20 19  1  0
 20 16  2  0
 21 20  1  0
 22 14  1  0
 22 21  2  0
M  END
>  <smiles>  (194) 
O=C(Nc1cnc2c(c1)CNC2)c1cc(F)cc2[nH]ncc12

>  <inchikey>  (194) 
LPGIDXODXUYNEY-UHFFFAOYSA-N

>  <alias>  (194) 
Z3808a

$$$$
Z3808b
     RDKit          3D

 22 25  0  0  0  0  0  0  0  0999 V2000
  -10.2000    3.7130  -17.5010 F   0  0  0  0  0  0  0  0  0  0  0  0
   -9.0150    4.2070  -17.0580 C   0  0  0  0  0  0  0  0  0  0  0  0
   -8.8340    4.3440  -15.7010 C   0  0  0  0  0  0  0  0  0  0  0  0
   -8.0540    4.5090  -17.9880 C   0  0  0  0  0  0  0  0  0  0  0  0
   -6.8300    4.9620  -17.5130 C   0  0  0  0  0  0  0  0  0  0  0  0
   -6.5660    5.1110  -16.1370 C   0  0  0  0  0  0  0  0  0  0  0  0
   -5.2260    5.5670  -16.0840 C   0  0  0  0  0  0  0  0  0  0  0  0
   -4.7110    5.6990  -17.2910 N   0  0  0  0  0  0  0  0  0  0  0  0
   -5.6940    5.3280  -18.1630 N   0  0  0  0  0  0  0  0  0  0  0  0
   -7.5970    4.7960  -15.2310 C   0  0  0  0  0  0  0  0  0  0  0  0
   -7.4040    4.9260  -13.7470 C   0  0  0  0  0  0  0  0  0  0  0  0
   -6.3560    5.3670  -13.2820 O   0  0  0  0  0  0  0  0  0  0  0  0
   -8.4170    4.4620  -12.9760 N   0  0  0  0  0  0  0  0  0  0  0  0
   -8.4250    4.3320  -11.5680 C   0  0  0  0  0  0  0  0  0  0  0  0
   -8.7470    3.1090  -10.9960 C   0  0  0  0  0  0  0  0  0  0  0  0
   -8.7990    2.9880   -9.6120 C   0  0  0  0  0  0  0  0  0  0  0  0
   -9.1630    1.7990   -8.7720 C   0  0  0  0  0  0  0  0  0  0  0  0
   -9.2930    2.3810   -7.4470 N   0  0  0  0  0  0  0  0  0  0  0  0
   -8.7090    3.7200   -7.4030 C   0  0  0  0  0  0  0  0  0  0  0  0
   -8.5040    4.1150   -8.8280 C   0  0  0  0  0  0  0  0  0  0  0  0
   -8.1580    5.2930   -9.3730 N   0  0  0  0  0  0  0  0  0  0  0  0
   -8.1340    5.3860  -10.7090 C   0  0  0  0  0  0  0  0  0  0  0  0
  2  1  1  0
  3  2  2  0
  4  2  1  0
  5  4  2  0
  6  5  1  0
  7  6  1  0
  8  7  2  0
  9  5  1  0
  9  8  1  0
 10  6  2  0
 10  3  1  0
 11 10  1  0
 12 11  2  0
 13 11  1  0
 14 13  1  0
 15 14  2  0
 16 15  1  0
 17 16  1  0
 18 17  1  0
 19 18  1  0
 20 19  1  0
 20 16  2  0
 21 20  1  0
 22 14  1  0
 22 21  2  0
M  END
>  <smiles>  (195) 
O=C(Nc1cnc2c(c1)CNC2)c1cc(F)cc2[nH]ncc12

>  <inchikey>  (195) 
LPGIDXODXUYNEY-UHFFFAOYSA-N

>  <alias>  (195) 
Z3808b

$$$$
Z3813a
     RDKit          3D

 22 24  0  0  0  0  0  0  0  0999 V2000
   -3.7970    5.0910  -18.5530 O   0  0  0  0  0  0  0  0  0  0  0  0
   -4.9550    5.0130  -18.1560 C   0  0  0  0  0  0  0  0  0  0  0  0
   -6.0310    4.6890  -18.9220 N   0  0  0  0  0  0  0  0  0  0  0  0
   -7.1910    4.5700  -18.1560 C   0  0  0  0  0  0  0  0  0  0  0  0
   -8.4630    4.1660  -18.5440 C   0  0  0  0  0  0  0  0  0  0  0  0
   -9.4300    3.9820  -17.5670 C   0  0  0  0  0  0  0  0  0  0  0  0
   -9.1380    4.2010  -16.2270 C   0  0  0  0  0  0  0  0  0  0  0  0
   -5.4420    5.1940  -16.7350 C   0  0  0  0  0  0  0  0  0  0  0  0
   -6.8900    4.8180  -16.8220 C   0  0  0  0  0  0  0  0  0  0  0  0
   -7.8710    4.6360  -15.8420 C   0  0  0  0  0  0  0  0  0  0  0  0
   -7.5870    4.9120  -14.3960 C   0  0  0  0  0  0  0  0  0  0  0  0
   -6.7460    5.7450  -14.0620 O   0  0  0  0  0  0  0  0  0  0  0  0
   -8.3380    4.2180  -13.5100 N   0  0  0  0  0  0  0  0  0  0  0  0
   -8.3320    4.3730  -12.1070 C   0  0  0  0  0  0  0  0  0  0  0  0
   -7.9800    5.6070  -11.5710 C   0  0  0  0  0  0  0  0  0  0  0  0
   -8.0090    5.8230  -10.2030 C   0  0  0  0  0  0  0  0  0  0  0  0
   -7.6490    7.1720   -9.6300 C   0  0  0  0  0  0  0  0  0  0  0  0
   -8.7180    3.3440  -11.2630 C   0  0  0  0  0  0  0  0  0  0  0  0
   -8.7790    3.5410   -9.8910 C   0  0  0  0  0  0  0  0  0  0  0  0
   -8.4030    4.7760   -9.3770 C   0  0  0  0  0  0  0  0  0  0  0  0
   -9.3490    2.4730   -8.9940 C   0  0  0  0  0  0  0  0  0  0  0  0
   -8.2980    1.5970   -8.4850 N   0  0  0  0  0  0  0  0  0  0  0  0
  2  1  2  0
  3  2  1  0
  4  3  1  0
  5  4  2  0
  6  5  1  0
  7  6  2  0
  8  2  1  0
  9  4  1  0
  9  8  1  0
 10  9  2  0
 10  7  1  0
 11 10  1  0
 12 11  2  0
 13 11  1  0
 14 13  1  0
 15 14  2  0
 16 15  1  0
 17 16  1  0
 18 14  1  0
 19 18  2  0
 20 19  1  0
 20 16  2  0
 21 19  1  0
 22 21  1  0
M  END
>  <smiles>  (196) 
Cc1cc(CN)cc(NC(=O)c2cccc3c2CC(=O)N3)c1

>  <inchikey>  (196) 
ACLYMOZSBKAVNS-UHFFFAOYSA-N

>  <alias>  (196) 
Z3813a

$$$$
Z3815a
     RDKit          3D

 24 27  0  0  0  0  0  0  0  0999 V2000
  -10.5060    4.1380  -17.6860 F   0  0  0  0  0  0  0  0  0  0  0  0
   -9.2310    4.2230  -17.2230 C   0  0  0  0  0  0  0  0  0  0  0  0
   -9.0290    4.2840  -15.8610 C   0  0  0  0  0  0  0  0  0  0  0  0
   -8.2270    4.3300  -18.1450 C   0  0  0  0  0  0  0  0  0  0  0  0
   -6.9440    4.5400  -17.6650 C   0  0  0  0  0  0  0  0  0  0  0  0
   -6.6620    4.6380  -16.2870 C   0  0  0  0  0  0  0  0  0  0  0  0
   -5.2670    4.8750  -16.2340 C   0  0  0  0  0  0  0  0  0  0  0  0
   -4.7350    4.9150  -17.4400 N   0  0  0  0  0  0  0  0  0  0  0  0
   -5.7640    4.7090  -18.3130 N   0  0  0  0  0  0  0  0  0  0  0  0
   -7.7330    4.5010  -15.3810 C   0  0  0  0  0  0  0  0  0  0  0  0
   -7.5420    4.6240  -13.8920 C   0  0  0  0  0  0  0  0  0  0  0  0
   -6.5340    5.1450  -13.4200 O   0  0  0  0  0  0  0  0  0  0  0  0
   -8.5510    4.1500  -13.1170 N   0  0  0  0  0  0  0  0  0  0  0  0
   -8.6240    4.1340  -11.6960 C   0  0  0  0  0  0  0  0  0  0  0  0
   -8.5550    5.3330  -10.9590 C   0  0  0  0  0  0  0  0  0  0  0  0
   -8.5180    6.8820  -11.8110 S   0  0  0  0  0  0  0  0  0  0  0  0
   -8.9490    8.0700  -10.5380 C   0  0  0  0  0  0  0  0  0  0  0  0
   -8.7680    2.9200  -11.0180 C   0  0  0  0  0  0  0  0  0  0  0  0
   -8.8380    2.9010   -9.6270 C   0  0  0  0  0  0  0  0  0  0  0  0
   -8.9890    1.7350   -8.6960 C   0  0  0  0  0  0  0  0  0  0  0  0
   -8.8140    2.3550   -7.3800 N   0  0  0  0  0  0  0  0  0  0  0  0
   -8.8400    3.8160   -7.4350 C   0  0  0  0  0  0  0  0  0  0  0  0
   -8.7400    4.0840   -8.9080 C   0  0  0  0  0  0  0  0  0  0  0  0
   -8.5880    5.2980   -9.5690 C   0  0  0  0  0  0  0  0  0  0  0  0
  2  1  1  0
  3  2  2  0
  4  2  1  0
  5  4  2  0
  6  5  1  0
  7  6  1  0
  8  7  2  0
  9  5  1  0
  9  8  1  0
 10  6  2  0
 10  3  1  0
 11 10  1  0
 12 11  2  0
 13 11  1  0
 14 13  1  0
 15 14  2  0
 16 15  1  0
 17 16  1  0
 18 14  1  0
 19 18  2  0
 20 19  1  0
 21 20  1  0
 22 21  1  0
 23 22  1  0
 23 19  1  0
 24 15  1  0
 24 23  2  0
M  END
>  <smiles>  (197) 
CSc1cc2c(cc1NC(=O)c1cc(F)cc3[nH]ncc13)CNC2

>  <inchikey>  (197) 
DBGJOQQGBAEKHO-UHFFFAOYSA-N

>  <alias>  (197) 
Z3815a

$$$$
Z3817a
     RDKit          3D

 23 26  0  0  0  0  0  0  0  0999 V2000
   -6.7800    5.3810  -13.2760 O   0  0  0  0  0  0  0  0  0  0  0  0
   -7.6520    4.6450  -13.7360 C   0  0  0  0  0  0  0  0  0  0  0  0
   -7.8650    4.5620  -15.2170 C   0  0  0  0  0  0  0  0  0  0  0  0
   -9.0990    4.2120  -15.7650 C   0  0  0  0  0  0  0  0  0  0  0  0
   -9.2830    4.1630  -17.1440 C   0  0  0  0  0  0  0  0  0  0  0  0
   -8.2440    4.4550  -18.0150 C   0  0  0  0  0  0  0  0  0  0  0  0
   -6.9970    4.8070  -17.5010 C   0  0  0  0  0  0  0  0  0  0  0  0
   -6.8220    4.8570  -16.1050 C   0  0  0  0  0  0  0  0  0  0  0  0
   -5.5150    5.2100  -15.8480 N   0  0  0  0  0  0  0  0  0  0  0  0
   -5.7330    5.1450  -18.0970 C   0  0  0  0  0  0  0  0  0  0  0  0
   -5.4510    5.1650  -19.5700 C   0  0  0  0  0  0  0  0  0  0  0  0
   -4.8650    5.3860  -17.0420 C   0  0  0  0  0  0  0  0  0  0  0  0
   -3.4190    5.7640  -17.0510 C   0  0  0  0  0  0  0  0  0  0  0  0
   -8.4650    3.8800  -12.9640 N   0  0  0  0  0  0  0  0  0  0  0  0
   -8.4990    3.8520  -11.5480 C   0  0  0  0  0  0  0  0  0  0  0  0
   -8.7460    2.6750  -10.8430 C   0  0  0  0  0  0  0  0  0  0  0  0
   -8.8030    2.6910   -9.4510 C   0  0  0  0  0  0  0  0  0  0  0  0
   -9.0930    1.5730   -8.4950 C   0  0  0  0  0  0  0  0  0  0  0  0
   -8.9040    2.2100   -7.1930 N   0  0  0  0  0  0  0  0  0  0  0  0
   -8.7280    3.6580   -7.2830 C   0  0  0  0  0  0  0  0  0  0  0  0
   -8.5950    3.8760   -8.7610 C   0  0  0  0  0  0  0  0  0  0  0  0
   -8.3310    5.0460   -9.4670 C   0  0  0  0  0  0  0  0  0  0  0  0
   -8.2940    5.0370  -10.8480 C   0  0  0  0  0  0  0  0  0  0  0  0
  2  1  2  0
  3  2  1  0
  4  3  2  0
  5  4  1  0
  6  5  2  0
  7  6  1  0
  8  7  2  0
  8  3  1  0
  9  8  1  0
 10  7  1  0
 11 10  1  0
 12 10  2  0
 12  9  1  0
 13 12  1  0
 14  2  1  0
 15 14  1  0
 16 15  2  0
 17 16  1  0
 18 17  1  0
 19 18  1  0
 20 19  1  0
 21 20  1  0
 21 17  2  0
 22 21  1  0
 23 15  1  0
 23 22  2  0
M  END
>  <smiles>  (198) 
Cc1[nH]c2c(C(=O)Nc3ccc4c(c3)CNC4)cccc2c1C

>  <inchikey>  (198) 
QQFQXOCLGVFGFB-UHFFFAOYSA-N

>  <alias>  (198) 
Z3817a

$$$$
Z3819a
     RDKit          3D

 29 31  0  0  0  0  0  0  0  0999 V2000
   -2.6630    3.0770  -13.4950 F   0  0  0  0  0  0  0  0  0  0  0  0
   -3.5600    2.0640  -13.3440 C   0  0  2  0  0  0  0  0  0  0  0  0
   -4.0140    1.7910  -14.5980 F   0  0  0  0  0  0  0  0  0  0  0  0
   -4.7340    2.5280  -12.3580 C   0  0  0  0  0  0  0  0  0  0  0  0
   -5.7060    3.4050  -13.0070 N   0  0  0  0  0  0  0  0  0  0  0  0
   -6.7970    2.9230  -13.6010 C   0  0  0  0  0  0  0  0  0  0  0  0
   -6.9450    1.7470  -13.8960 O   0  0  0  0  0  0  0  0  0  0  0  0
   -7.9320    3.9050  -13.7970 C   0  0  2  0  0  0  0  0  0  0  0  0
   -7.9250    4.4190  -15.2380 C   0  0  0  0  0  0  0  0  0  0  0  0
   -9.0770    4.1560  -15.9720 C   0  0  0  0  0  0  0  0  0  0  0  0
   -9.1090    4.3660  -17.3300 C   0  0  0  0  0  0  0  0  0  0  0  0
  -10.5370    3.9190  -18.2110 Cl  0  0  0  0  0  0  0  0  0  0  0  0
   -8.0300    4.8770  -18.0060 C   0  0  0  0  0  0  0  0  0  0  0  0
   -6.8910    5.2080  -17.2970 C   0  0  0  0  0  0  0  0  0  0  0  0
   -6.8320    4.9760  -15.9240 C   0  0  0  0  0  0  0  0  0  0  0  0
   -5.7010    5.2770  -15.1940 O   0  0  0  0  0  0  0  0  0  0  0  0
   -4.4900    5.8030  -15.8650 C   0  0  1  0  0  0  0  0  0  0  0  0
   -3.5970    6.4610  -14.8470 C   0  0  0  0  0  0  0  0  0  0  0  0
   -3.7670    4.7340  -16.6650 C   0  0  0  0  0  0  0  0  0  0  0  0
   -8.1520    4.9330  -12.8010 N   0  0  0  0  0  0  0  0  0  0  0  0
   -8.3350    4.6900  -11.4360 C   0  0  0  0  0  0  0  0  0  0  0  0
   -8.7430    3.4500  -10.9370 C   0  0  0  0  0  0  0  0  0  0  0  0
   -8.7990    3.2340   -9.5620 C   0  0  0  0  0  0  0  0  0  0  0  0
   -9.1560    1.9910   -8.8020 C   0  0  0  0  0  0  0  0  0  0  0  0
   -8.7900    2.3460   -7.4280 N   0  0  0  0  0  0  0  0  0  0  0  0
   -8.6190    3.7990   -7.2620 C   0  0  0  0  0  0  0  0  0  0  0  0
   -8.4770    4.2590   -8.6830 C   0  0  0  0  0  0  0  0  0  0  0  0
   -8.1040    5.5010   -9.1820 C   0  0  0  0  0  0  0  0  0  0  0  0
   -8.0340    5.7170  -10.5460 C   0  0  0  0  0  0  0  0  0  0  0  0
  2  1  1  6
  3  2  1  0
  4  2  1  0
  5  4  1  0
  6  5  1  0
  7  6  2  0
  8  6  1  0
  9  8  1  0
 10  9  2  0
 11 10  1  0
 12 11  1  0
 13 11  2  0
 14 13  1  0
 15 14  2  0
 15  9  1  0
 16 15  1  0
 17 16  1  0
 17 18  1  1
 19 17  1  0
  8 20  1  1
 21 20  1  0
 22 21  2  0
 23 22  1  0
 24 23  1  0
 25 24  1  0
 26 25  1  0
 27 26  1  0
 27 23  2  0
 28 27  1  0
 29 21  1  0
 29 28  2  0
M  END
>  <smiles>  (199) 
CC(C)Oc1ccc(Cl)cc1[C@H](Nc1ccc2c(c1)CNC2)C(=O)NCC(F)F

>  <inchikey>  (199) 
NPTSSNKKCQDDDZ-FQEVSTJZSA-N

>  <alias>  (199) 
Z3819a

$$$$
Z3826a
     RDKit          3D

 26 29  0  0  0  0  0  0  0  0999 V2000
   -6.8520    5.8780  -13.1080 O   0  0  0  0  0  0  0  0  0  0  0  0
   -7.5650    5.0120  -13.6090 C   0  0  0  0  0  0  0  0  0  0  0  0
   -7.6180    4.8210  -15.0980 C   0  0  0  0  0  0  0  0  0  0  0  0
   -8.8420    4.4920  -15.6870 C   0  0  0  0  0  0  0  0  0  0  0  0
   -8.9140    4.3980  -17.0620 C   0  0  0  0  0  0  0  0  0  0  0  0
  -10.1110    4.0700  -17.6250 F   0  0  0  0  0  0  0  0  0  0  0  0
   -7.8410    4.6040  -17.8970 C   0  0  0  0  0  0  0  0  0  0  0  0
   -6.4970    5.0230  -15.9040 C   0  0  0  0  0  0  0  0  0  0  0  0
   -6.6300    4.9070  -17.2840 C   0  0  0  0  0  0  0  0  0  0  0  0
   -5.3910    5.1240  -17.8930 N   0  0  0  0  0  0  0  0  0  0  0  0
   -4.4250    5.4140  -16.9890 C   0  0  0  0  0  0  0  0  0  0  0  0
   -3.2490    5.6480  -17.2330 O   0  0  0  0  0  0  0  0  0  0  0  0
   -5.0620    5.3930  -15.5870 C   0  0  2  0  0  0  0  0  0  0  0  0
   -4.3340    4.3900  -14.6930 C   0  0  0  0  0  0  0  0  0  0  0  0
   -4.9750    6.6450  -14.8970 O   0  0  0  0  0  0  0  0  0  0  0  0
   -5.3230    7.8030  -15.6710 C   0  0  0  0  0  0  0  0  0  0  0  0
   -8.3490    4.1780  -12.8790 N   0  0  0  0  0  0  0  0  0  0  0  0
   -8.4780    4.1350  -11.4670 C   0  0  0  0  0  0  0  0  0  0  0  0
   -8.7070    2.9200  -10.8220 C   0  0  0  0  0  0  0  0  0  0  0  0
   -8.7860    2.8700   -9.4320 C   0  0  0  0  0  0  0  0  0  0  0  0
   -9.0950    1.7080   -8.5340 C   0  0  0  0  0  0  0  0  0  0  0  0
   -8.7240    2.2480   -7.2290 N   0  0  0  0  0  0  0  0  0  0  0  0
   -8.6640    3.7150   -7.2170 C   0  0  0  0  0  0  0  0  0  0  0  0
   -8.6060    4.0250   -8.6830 C   0  0  0  0  0  0  0  0  0  0  0  0
   -8.3890    5.2380   -9.3300 C   0  0  0  0  0  0  0  0  0  0  0  0
   -8.3390    5.2960  -10.7100 C   0  0  0  0  0  0  0  0  0  0  0  0
  2  1  2  0
  3  2  1  0
  4  3  2  0
  5  4  1  0
  6  5  1  0
  7  5  2  0
  8  3  1  0
  9  7  1  0
  9  8  2  0
 10  9  1  0
 11 10  1  0
 12 11  2  0
 13  8  1  0
 13 11  1  0
 13 14  1  1
 15 13  1  0
 16 15  1  0
 17  2  1  0
 18 17  1  0
 19 18  2  0
 20 19  1  0
 21 20  1  0
 22 21  1  0
 23 22  1  0
 24 23  1  0
 24 20  2  0
 25 24  1  0
 26 18  1  0
 26 25  2  0
M  END
>  <smiles>  (200) 
CO[C@]1(C)C(=O)Nc2cc(F)cc(C(=O)Nc3ccc4c(c3)CNC4)c21

>  <inchikey>  (200) 
PJQDDSGKKYUGPD-IBGZPJMESA-N

>  <alias>  (200) 
Z3826a

$$$$
Z3830a
     RDKit          3D

 26 29  0  0  0  0  0  0  0  0999 V2000
  -10.2140    3.7840  -18.0470 Cl  0  0  0  0  0  0  0  0  0  0  0  0
   -8.7200    4.2570  -17.2830 C   0  0  0  0  0  0  0  0  0  0  0  0
   -8.6660    4.3420  -15.8980 C   0  0  0  0  0  0  0  0  0  0  0  0
   -7.6250    4.5280  -18.0760 C   0  0  0  0  0  0  0  0  0  0  0  0
   -6.4360    4.8830  -17.4510 C   0  0  0  0  0  0  0  0  0  0  0  0
   -6.3220    4.9830  -16.0500 C   0  0  0  0  0  0  0  0  0  0  0  0
   -4.9670    5.3290  -15.8330 C   0  0  0  0  0  0  0  0  0  0  0  0
   -4.3040    5.4320  -16.9690 N   0  0  0  0  0  0  0  0  0  0  0  0
   -5.2060    5.1600  -17.9580 N   0  0  0  0  0  0  0  0  0  0  0  0
   -7.4710    4.7160  -15.2750 C   0  0  0  0  0  0  0  0  0  0  0  0
   -7.4390    4.8960  -13.7820 C   0  0  0  0  0  0  0  0  0  0  0  0
   -6.6420    5.6800  -13.2720 O   0  0  0  0  0  0  0  0  0  0  0  0
   -8.3060    4.1440  -13.0540 N   0  0  0  0  0  0  0  0  0  0  0  0
   -8.4330    4.1230  -11.6330 C   0  0  0  0  0  0  0  0  0  0  0  0
   -8.7010    2.9360  -10.9500 C   0  0  0  0  0  0  0  0  0  0  0  0
   -8.2080    5.2960  -10.9090 C   0  0  0  0  0  0  0  0  0  0  0  0
   -8.2020    5.2750   -9.5230 C   0  0  0  0  0  0  0  0  0  0  0  0
   -8.4240    4.0790   -8.8480 C   0  0  0  0  0  0  0  0  0  0  0  0
   -8.6930    2.9200   -9.5560 C   0  0  0  0  0  0  0  0  0  0  0  0
   -8.9330    1.7790   -8.6120 C   0  0  0  0  0  0  0  0  0  0  0  0
   -8.6180    2.2890   -7.2750 N   0  0  0  0  0  0  0  0  0  0  0  0
   -8.2790    3.7110   -7.3890 C   0  0  2  0  0  0  0  0  0  0  0  0
   -9.0720    4.5980   -6.4090 C   0  0  0  0  0  0  0  0  0  0  0  0
   -8.5090    5.9830   -6.1760 C   0  0  0  0  0  0  0  0  0  0  0  0
   -9.2180    6.9650   -6.1950 O   0  0  0  0  0  0  0  0  0  0  0  0
   -7.2140    6.0310   -5.9340 O   0  0  0  0  0  0  0  0  0  0  0  0
  2  1  1  0
  3  2  2  0
  4  2  1  0
  5  4  2  0
  6  5  1  0
  7  6  1  0
  8  7  2  0
  9  5  1  0
  9  8  1  0
 10  6  2  0
 10  3  1  0
 11 10  1  0
 12 11  2  0
 13 11  1  0
 14 13  1  0
 15 14  2  0
 16 14  1  0
 17 16  2  0
 18 17  1  0
 19 15  1  0
 19 18  2  0
 20 19  1  0
 21 20  1  0
 22 21  1  0
 22 18  1  0
 22 23  1  1
 24 23  1  0
 25 24  2  0
 26 24  1  0
M  END
>  <smiles>  (201) 
O=C(O)C[C@H]1NCc2cc(NC(=O)c3cc(Cl)cc4[nH]ncc34)ccc21

>  <inchikey>  (201) 
ACAXOSXMTLFYMA-OAHLLOKOSA-N

>  <alias>  (201) 
Z3830a

$$$$
Z3831a
     RDKit          3D

 22 25  0  0  0  0  0  0  0  0999 V2000
   -6.8020    5.5060  -13.3510 O   0  0  0  0  0  0  0  0  0  0  0  0
   -7.6710    4.7530  -13.7830 C   0  0  0  0  0  0  0  0  0  0  0  0
   -7.8530    4.5650  -15.2580 C   0  0  0  0  0  0  0  0  0  0  0  0
   -6.7700    4.7220  -16.1300 C   0  0  0  0  0  0  0  0  0  0  0  0
   -5.2970    4.8300  -15.8780 C   0  0  0  0  0  0  0  0  0  0  0  0
   -9.1210    4.3620  -15.7940 C   0  0  0  0  0  0  0  0  0  0  0  0
   -9.3160    4.3620  -17.1700 C   0  0  0  0  0  0  0  0  0  0  0  0
   -8.2510    4.5590  -18.0390 C   0  0  0  0  0  0  0  0  0  0  0  0
   -6.9750    4.7300  -17.5040 C   0  0  0  0  0  0  0  0  0  0  0  0
   -5.7560    4.9270  -18.1510 N   0  0  0  0  0  0  0  0  0  0  0  0
   -4.7210    4.9820  -17.2690 C   0  0  0  0  0  0  0  0  0  0  0  0
   -3.5340    5.1020  -17.5680 O   0  0  0  0  0  0  0  0  0  0  0  0
   -8.4930    4.0400  -12.9770 N   0  0  0  0  0  0  0  0  0  0  0  0
   -8.5200    4.0730  -11.5740 C   0  0  0  0  0  0  0  0  0  0  0  0
   -8.7330    2.8920  -10.9750 N   0  0  0  0  0  0  0  0  0  0  0  0
   -8.8290    2.8910   -9.6370 C   0  0  0  0  0  0  0  0  0  0  0  0
   -9.1530    1.7730   -8.7020 C   0  0  0  0  0  0  0  0  0  0  0  0
   -8.8850    2.2840   -7.3670 N   0  0  0  0  0  0  0  0  0  0  0  0
   -8.8440    3.7450   -7.3680 C   0  0  0  0  0  0  0  0  0  0  0  0
   -8.6900    4.0300   -8.8330 C   0  0  0  0  0  0  0  0  0  0  0  0
   -8.4470    5.2360   -9.4820 C   0  0  0  0  0  0  0  0  0  0  0  0
   -8.3650    5.2750  -10.8610 C   0  0  0  0  0  0  0  0  0  0  0  0
  2  1  2  0
  3  2  1  0
  4  3  2  0
  5  4  1  0
  6  3  1  0
  7  6  2  0
  8  7  1  0
  9  8  2  0
  9  4  1  0
 10  9  1  0
 11 10  1  0
 11  5  1  0
 12 11  2  0
 13  2  1  0
 14 13  1  0
 15 14  2  0
 16 15  1  0
 17 16  1  0
 18 17  1  0
 19 18  1  0
 20 19  1  0
 20 16  2  0
 21 20  1  0
 22 14  1  0
 22 21  2  0
M  END
>  <smiles>  (202) 
O=C1Cc2c(cccc2C(=O)Nc2ccc3c(n2)CNC3)N1

>  <inchikey>  (202) 
MGCAZFAVYBYTMO-UHFFFAOYSA-N

>  <alias>  (202) 
Z3831a

$$$$
Z3833a
     RDKit          3D

 28 31  0  0  0  0  0  0  0  0999 V2000
   -6.9420    6.1590  -13.1150 O   0  0  0  0  0  0  0  0  0  0  0  0
   -7.4770    5.1580  -13.5820 C   0  0  0  0  0  0  0  0  0  0  0  0
   -7.5180    4.9310  -15.0660 C   0  0  0  0  0  0  0  0  0  0  0  0
   -8.7680    4.6710  -15.6400 C   0  0  0  0  0  0  0  0  0  0  0  0
   -8.8470    4.5320  -17.0090 C   0  0  0  0  0  0  0  0  0  0  0  0
  -10.0690    4.3120  -17.5650 F   0  0  0  0  0  0  0  0  0  0  0  0
   -7.7620    4.6100  -17.8450 C   0  0  0  0  0  0  0  0  0  0  0  0
   -6.3810    5.0230  -15.8730 C   0  0  0  0  0  0  0  0  0  0  0  0
   -6.5280    4.8350  -17.2460 C   0  0  0  0  0  0  0  0  0  0  0  0
   -5.2700    4.7820  -17.8480 N   0  0  0  0  0  0  0  0  0  0  0  0
   -4.2740    5.0250  -16.9640 C   0  0  0  0  0  0  0  0  0  0  0  0
   -3.0730    4.9460  -17.1880 O   0  0  0  0  0  0  0  0  0  0  0  0
   -4.9230    5.3590  -15.6050 C   0  0  2  0  0  0  0  0  0  0  0  0
   -4.2630    4.5440  -14.4920 C   0  0  0  0  0  0  0  0  0  0  0  0
   -4.7320    6.7300  -15.1870 O   0  0  0  0  0  0  0  0  0  0  0  0
   -4.2050    7.7260  -16.1080 C   0  0  2  0  0  0  0  0  0  0  0  0
   -2.7680    8.0380  -15.7540 C   0  0  0  0  0  0  0  0  0  0  0  0
   -5.0920    8.9390  -16.1010 C   0  0  0  0  0  0  0  0  0  0  0  0
   -8.1190    4.2230  -12.8320 N   0  0  0  0  0  0  0  0  0  0  0  0
   -8.3200    4.2050  -11.4270 C   0  0  0  0  0  0  0  0  0  0  0  0
   -8.6460    3.0030  -10.7980 C   0  0  0  0  0  0  0  0  0  0  0  0
   -8.8220    2.9600   -9.4180 C   0  0  0  0  0  0  0  0  0  0  0  0
   -9.1790    1.8020   -8.5340 C   0  0  0  0  0  0  0  0  0  0  0  0
   -8.8800    2.3420   -7.2040 N   0  0  0  0  0  0  0  0  0  0  0  0
   -8.8190    3.8050   -7.1990 C   0  0  0  0  0  0  0  0  0  0  0  0
   -8.6650    4.1120   -8.6600 C   0  0  0  0  0  0  0  0  0  0  0  0
   -8.3590    5.3150   -9.2920 C   0  0  0  0  0  0  0  0  0  0  0  0
   -8.1900    5.3620  -10.6630 C   0  0  0  0  0  0  0  0  0  0  0  0
  2  1  2  0
  3  2  1  0
  4  3  2  0
  5  4  1  0
  6  5  1  0
  7  5  2  0
  8  3  1  0
  9  7  1  0
  9  8  2  0
 10  9  1  0
 11 10  1  0
 12 11  2  0
 13  8  1  0
 13 11  1  0
 13 14  1  1
 15 13  1  0
 16 15  1  0
 16 17  1  1
 18 16  1  0
 19  2  1  0
 20 19  1  0
 21 20  2  0
 22 21  1  0
 23 22  1  0
 24 23  1  0
 25 24  1  0
 26 25  1  0
 26 22  2  0
 27 26  1  0
 28 20  1  0
 28 27  2  0
M  END
>  <smiles>  (203) 
CC(C)O[C@]1(C)C(=O)Nc2cc(F)cc(C(=O)Nc3ccc4c(c3)CNC4)c21

>  <inchikey>  (203) 
JEMQDWKUZHBMIM-NRFANRHFSA-N

>  <alias>  (203) 
Z3833a

$$$$
Z3834a
     RDKit          3D

 24 28  0  0  0  0  0  0  0  0999 V2000
   -6.6110    5.4790  -13.5840 O   0  0  0  0  0  0  0  0  0  0  0  0
   -7.4440    4.6720  -13.9910 C   0  0  0  0  0  0  0  0  0  0  0  0
   -7.6960    4.5130  -15.4590 C   0  0  0  0  0  0  0  0  0  0  0  0
   -6.7220    4.8540  -16.4130 C   0  0  0  0  0  0  0  0  0  0  0  0
   -5.4100    5.2570  -16.2510 N   0  0  0  0  0  0  0  0  0  0  0  0
   -4.8390    5.4120  -17.4950 C   0  0  0  0  0  0  0  0  0  0  0  0
   -3.4880    5.7210  -18.0630 C   0  0  0  0  0  0  0  0  0  0  0  0
   -3.6270    5.3510  -19.5400 C   0  0  0  0  0  0  0  0  0  0  0  0
   -5.1240    5.2840  -19.8340 C   0  0  0  0  0  0  0  0  0  0  0  0
   -5.7600    5.1360  -18.4640 C   0  0  0  0  0  0  0  0  0  0  0  0
   -6.9810    4.7720  -17.7940 C   0  0  0  0  0  0  0  0  0  0  0  0
   -8.2340    4.3400  -18.2240 C   0  0  0  0  0  0  0  0  0  0  0  0
   -9.1970    3.9890  -17.2890 C   0  0  0  0  0  0  0  0  0  0  0  0
   -8.9340    4.0690  -15.9260 C   0  0  0  0  0  0  0  0  0  0  0  0
   -8.2210    3.9170  -13.1740 N   0  0  0  0  0  0  0  0  0  0  0  0
   -8.2840    3.9630  -11.7580 C   0  0  0  0  0  0  0  0  0  0  0  0
   -8.6390    2.8260  -11.0330 C   0  0  0  0  0  0  0  0  0  0  0  0
   -8.7260    2.8830   -9.6430 C   0  0  0  0  0  0  0  0  0  0  0  0
   -9.1110    1.8120   -8.6660 C   0  0  0  0  0  0  0  0  0  0  0  0
   -8.6970    2.4230   -7.4010 N   0  0  0  0  0  0  0  0  0  0  0  0
   -8.5520    3.8750   -7.4930 C   0  0  0  0  0  0  0  0  0  0  0  0
   -8.4470    4.0680   -8.9770 C   0  0  0  0  0  0  0  0  0  0  0  0
   -8.0990    5.2020   -9.7030 C   0  0  0  0  0  0  0  0  0  0  0  0
   -8.0190    5.1520  -11.0830 C   0  0  0  0  0  0  0  0  0  0  0  0
  2  1  2  0
  3  2  1  0
  4  3  2  0
  5  4  1  0
  6  5  1  0
  7  6  1  0
  8  7  1  0
  9  8  1  0
 10  9  1  0
 10  6  2  0
 11 10  1  0
 11  4  1  0
 12 11  2  0
 13 12  1  0
 14 13  2  0
 14  3  1  0
 15  2  1  0
 16 15  1  0
 17 16  2  0
 18 17  1  0
 19 18  1  0
 20 19  1  0
 21 20  1  0
 22 21  1  0
 22 18  2  0
 23 22  1  0
 24 16  1  0
 24 23  2  0
M  END
>  <smiles>  (204) 
O=C(Nc1ccc2c(c1)CNC2)c1cccc2c3c([nH]c12)CCC3

>  <inchikey>  (204) 
JWOQOAUDGHYUDO-UHFFFAOYSA-N

>  <alias>  (204) 
Z3834a

$$$$
Z3837a
     RDKit          3D

 23 26  0  0  0  0  0  0  0  0999 V2000
   -6.4670    5.4060  -13.3120 O   0  0  0  0  0  0  0  0  0  0  0  0
   -7.3860    4.7230  -13.7570 C   0  0  0  0  0  0  0  0  0  0  0  0
   -7.5900    4.5660  -15.2360 C   0  0  0  0  0  0  0  0  0  0  0  0
   -6.5480    4.7340  -16.1580 C   0  0  0  0  0  0  0  0  0  0  0  0
   -5.0880    5.0220  -15.9850 C   0  0  0  0  0  0  0  0  0  0  0  0
   -8.8660    4.2720  -15.7140 C   0  0  0  0  0  0  0  0  0  0  0  0
   -9.1040    4.1650  -17.0780 C   0  0  0  0  0  0  0  0  0  0  0  0
   -8.0810    4.3420  -17.9960 C   0  0  0  0  0  0  0  0  0  0  0  0
   -6.8010    4.6120  -17.5200 C   0  0  0  0  0  0  0  0  0  0  0  0
   -5.6060    4.7330  -18.2290 N   0  0  0  0  0  0  0  0  0  0  0  0
   -4.5510    4.9500  -17.3990 C   0  0  0  0  0  0  0  0  0  0  0  0
   -3.3760    5.0320  -17.7480 O   0  0  0  0  0  0  0  0  0  0  0  0
   -8.3040    4.1070  -12.9680 N   0  0  0  0  0  0  0  0  0  0  0  0
   -8.3980    4.1590  -11.5530 C   0  0  0  0  0  0  0  0  0  0  0  0
   -8.6630    3.0110  -10.8120 C   0  0  0  0  0  0  0  0  0  0  0  0
   -8.6950    3.0480   -9.4170 C   0  0  0  0  0  0  0  0  0  0  0  0
   -9.0350    1.8090   -8.6260 C   0  0  0  0  0  0  0  0  0  0  0  0
   -8.5970    1.9000   -7.2340 N   0  0  0  0  0  0  0  0  0  0  0  0
   -9.0800    3.1420   -6.6210 C   0  0  0  0  0  0  0  0  0  0  0  0
   -8.4090    4.3410   -7.2480 C   0  0  0  0  0  0  0  0  0  0  0  0
   -8.4390    4.2630   -8.7570 C   0  0  0  0  0  0  0  0  0  0  0  0
   -8.1920    5.4050   -9.5140 C   0  0  0  0  0  0  0  0  0  0  0  0
   -8.1820    5.3610  -10.8950 C   0  0  0  0  0  0  0  0  0  0  0  0
  2  1  2  0
  3  2  1  0
  4  3  2  0
  5  4  1  0
  6  3  1  0
  7  6  2  0
  8  7  1  0
  9  8  2  0
  9  4  1  0
 10  9  1  0
 11 10  1  0
 11  5  1  0
 12 11  2  0
 13  2  1  0
 14 13  1  0
 15 14  2  0
 16 15  1  0
 17 16  1  0
 18 17  1  0
 19 18  1  0
 20 19  1  0
 21 20  1  0
 21 16  2  0
 22 21  1  0
 23 14  1  0
 23 22  2  0
M  END
>  <smiles>  (205) 
O=C1Cc2c(cccc2C(=O)Nc2ccc3c(c2)CNCC3)N1

>  <inchikey>  (205) 
UXCUTWMWRWDNCZ-UHFFFAOYSA-N

>  <alias>  (205) 
Z3837a

$$$$
Z3842a
     RDKit          3D

 29 31  0  0  0  0  0  0  0  0999 V2000
   -5.2640    7.4220  -16.6220 F   0  0  0  0  0  0  0  0  0  0  0  0
   -5.3400    6.1370  -16.9980 C   0  0  1  0  0  0  0  0  0  0  0  0
   -5.1420    6.0760  -18.3050 F   0  0  0  0  0  0  0  0  0  0  0  0
   -4.2780    5.5550  -16.4710 F   0  0  0  0  0  0  0  0  0  0  0  0
   -6.6140    5.4770  -16.5810 C   0  0  0  0  0  0  0  0  0  0  0  0
   -7.5750    5.1360  -17.5270 C   0  0  0  0  0  0  0  0  0  0  0  0
   -8.7280    4.4500  -17.1700 C   0  0  0  0  0  0  0  0  0  0  0  0
   -9.8040    4.1600  -18.1880 C   0  0  0  0  0  0  0  0  0  0  0  0
   -6.8070    5.1130  -15.2560 C   0  0  0  0  0  0  0  0  0  0  0  0
   -7.9230    4.3780  -14.8800 C   0  0  0  0  0  0  0  0  0  0  0  0
   -8.8810    4.0720  -15.8410 C   0  0  0  0  0  0  0  0  0  0  0  0
   -8.0110    3.7920  -13.4770 C   0  0  1  0  0  0  0  0  0  0  0  0
   -6.8470    2.7570  -13.2840 C   0  0  0  0  0  0  0  0  0  0  0  0
   -5.7660    3.2290  -12.6620 N   0  0  0  0  0  0  0  0  0  0  0  0
   -4.5510    2.4460  -12.4850 C   0  0  0  0  0  0  0  0  0  0  0  0
   -3.4830    2.8140  -13.5840 C   0  0  1  0  0  0  0  0  0  0  0  0
   -3.3610    1.7440  -14.4130 F   0  0  0  0  0  0  0  0  0  0  0  0
   -3.9170    3.8340  -14.3680 F   0  0  0  0  0  0  0  0  0  0  0  0
   -6.9540    1.5940  -13.6580 O   0  0  0  0  0  0  0  0  0  0  0  0
   -8.0070    4.8410  -12.4780 N   0  0  0  0  0  0  0  0  0  0  0  0
   -8.1790    4.6180  -11.1130 C   0  0  0  0  0  0  0  0  0  0  0  0
   -8.5480    3.3740  -10.6040 C   0  0  0  0  0  0  0  0  0  0  0  0
   -8.7220    3.2010   -9.2370 C   0  0  0  0  0  0  0  0  0  0  0  0
   -9.1510    1.9820   -8.4780 C   0  0  0  0  0  0  0  0  0  0  0  0
   -9.0170    2.4230   -7.0890 N   0  0  0  0  0  0  0  0  0  0  0  0
   -8.7620    3.8510   -6.9500 C   0  0  0  0  0  0  0  0  0  0  0  0
   -8.5220    4.2670   -8.3710 C   0  0  0  0  0  0  0  0  0  0  0  0
   -8.1560    5.5080   -8.8810 C   0  0  0  0  0  0  0  0  0  0  0  0
   -7.9840    5.6830  -10.2400 C   0  0  0  0  0  0  0  0  0  0  0  0
  2  1  1  1
  3  2  1  0
  4  2  1  0
  5  2  1  0
  6  5  2  0
  7  6  1  0
  8  7  1  0
  9  5  1  0
 10  9  2  0
 11  7  2  0
 11 10  1  0
 12 10  1  0
 13 12  1  0
 14 13  1  0
 15 14  1  0
 16 15  1  0
 16 17  1  6
 18 16  1  0
 19 13  2  0
 12 20  1  1
 21 20  1  0
 22 21  2  0
 23 22  1  0
 24 23  1  0
 25 24  1  0
 26 25  1  0
 27 26  1  0
 27 23  2  0
 28 27  1  0
 29 21  1  0
 29 28  2  0
M  END
>  <smiles>  (206) 
Cc1cc([C@H](Nc2ccc3c(c2)CNC3)C(=O)NCC(F)F)cc(C(F)(F)F)c1

>  <inchikey>  (206) 
DXHLVVVVEFLCRN-SFHVURJKSA-N

>  <alias>  (206) 
Z3842a

$$$$
Z3850a
     RDKit          3D

 22 25  0  0  0  0  0  0  0  0999 V2000
  -10.2360    3.6990  -17.7730 F   0  0  0  0  0  0  0  0  0  0  0  0
   -9.0360    4.1050  -17.2680 C   0  0  0  0  0  0  0  0  0  0  0  0
   -8.9060    4.2250  -15.9010 C   0  0  0  0  0  0  0  0  0  0  0  0
   -8.0260    4.3790  -18.1550 C   0  0  0  0  0  0  0  0  0  0  0  0
   -6.8180    4.8200  -17.6280 C   0  0  0  0  0  0  0  0  0  0  0  0
   -6.6100    4.9570  -16.2400 C   0  0  0  0  0  0  0  0  0  0  0  0
   -5.2870    5.4490  -16.1310 C   0  0  0  0  0  0  0  0  0  0  0  0
   -4.7290    5.6060  -17.3170 N   0  0  0  0  0  0  0  0  0  0  0  0
   -5.6680    5.2220  -18.2300 N   0  0  0  0  0  0  0  0  0  0  0  0
   -7.6780    4.6470  -15.3780 C   0  0  0  0  0  0  0  0  0  0  0  0
   -7.5430    4.7900  -13.8880 C   0  0  0  0  0  0  0  0  0  0  0  0
   -6.7750    5.6210  -13.4050 O   0  0  0  0  0  0  0  0  0  0  0  0
   -8.3210    3.9650  -13.1380 N   0  0  0  0  0  0  0  0  0  0  0  0
   -8.4210    3.9300  -11.7220 C   0  0  0  0  0  0  0  0  0  0  0  0
   -8.6610    2.7520  -11.0240 C   0  0  0  0  0  0  0  0  0  0  0  0
   -8.7380    2.7800   -9.6350 C   0  0  0  0  0  0  0  0  0  0  0  0
   -9.0620    1.6840   -8.6610 C   0  0  0  0  0  0  0  0  0  0  0  0
   -8.8230    2.3190   -7.3690 N   0  0  0  0  0  0  0  0  0  0  0  0
   -8.6290    3.7540   -7.5070 C   0  0  0  0  0  0  0  0  0  0  0  0
   -8.5510    4.0070   -8.9770 C   0  0  0  0  0  0  0  0  0  0  0  0
   -8.3330    5.1500   -9.6460 N   0  0  0  0  0  0  0  0  0  0  0  0
   -8.2760    5.0970  -10.9820 C   0  0  0  0  0  0  0  0  0  0  0  0
  2  1  1  0
  3  2  2  0
  4  2  1  0
  5  4  2  0
  6  5  1  0
  7  6  1  0
  8  7  2  0
  9  5  1  0
  9  8  1  0
 10  6  2  0
 10  3  1  0
 11 10  1  0
 12 11  2  0
 13 11  1  0
 14 13  1  0
 15 14  2  0
 16 15  1  0
 17 16  1  0
 18 17  1  0
 19 18  1  0
 20 19  1  0
 20 16  2  0
 21 20  1  0
 22 14  1  0
 22 21  2  0
M  END
>  <smiles>  (207) 
O=C(Nc1cnc2c(c1)CNC2)c1cc(F)cc2[nH]ncc12

>  <inchikey>  (207) 
LPGIDXODXUYNEY-UHFFFAOYSA-N

>  <alias>  (207) 
Z3850a

$$$$
Z3856a
     RDKit          3D

 23 26  0  0  0  0  0  0  0  0999 V2000
   -6.6090    5.2920  -13.5130 O   0  0  0  0  0  0  0  0  0  0  0  0
   -7.5480    4.5960  -13.8900 C   0  0  0  0  0  0  0  0  0  0  0  0
   -7.8260    4.4200  -15.3520 C   0  0  0  0  0  0  0  0  0  0  0  0
   -9.0930    4.0400  -15.7930 C   0  0  0  0  0  0  0  0  0  0  0  0
   -9.3800    3.9390  -17.1490 C   0  0  0  0  0  0  0  0  0  0  0  0
   -8.4110    4.2040  -18.1060 C   0  0  0  0  0  0  0  0  0  0  0  0
   -7.1320    4.5780  -17.7060 C   0  0  0  0  0  0  0  0  0  0  0  0
   -6.8500    4.6800  -16.3290 C   0  0  0  0  0  0  0  0  0  0  0  0
   -5.5280    5.0410  -16.1880 N   0  0  0  0  0  0  0  0  0  0  0  0
   -4.9740    5.1810  -17.4310 C   0  0  0  0  0  0  0  0  0  0  0  0
   -5.9140    4.8980  -18.3940 C   0  0  0  0  0  0  0  0  0  0  0  0
   -5.7080    4.8810  -19.8160 C   0  0  0  0  0  0  0  0  0  0  0  0
   -5.5040    4.8970  -20.9480 N   0  0  0  0  0  0  0  0  0  0  0  0
   -8.4000    3.9600  -13.0440 N   0  0  0  0  0  0  0  0  0  0  0  0
   -8.4020    3.9870  -11.6240 C   0  0  0  0  0  0  0  0  0  0  0  0
   -8.6650    2.8200  -10.9090 C   0  0  0  0  0  0  0  0  0  0  0  0
   -8.7370    2.8530   -9.5190 C   0  0  0  0  0  0  0  0  0  0  0  0
   -9.0910    1.7550   -8.5600 C   0  0  0  0  0  0  0  0  0  0  0  0
   -8.9430    2.4080   -7.2680 N   0  0  0  0  0  0  0  0  0  0  0  0
   -8.6580    3.8380   -7.3590 C   0  0  0  0  0  0  0  0  0  0  0  0
   -8.5170    4.0430   -8.8380 C   0  0  0  0  0  0  0  0  0  0  0  0
   -8.2330    5.2010   -9.5520 C   0  0  0  0  0  0  0  0  0  0  0  0
   -8.1830    5.1780  -10.9350 C   0  0  0  0  0  0  0  0  0  0  0  0
  2  1  2  0
  3  2  1  0
  4  3  2  0
  5  4  1  0
  6  5  2  0
  7  6  1  0
  8  7  2  0
  8  3  1  0
  9  8  1  0
 10  9  1  0
 11  7  1  0
 11 10  2  0
 12 11  1  0
 13 12  3  0
 14  2  1  0
 15 14  1  0
 16 15  2  0
 17 16  1  0
 18 17  1  0
 19 18  1  0
 20 19  1  0
 21 20  1  0
 21 17  2  0
 22 21  1  0
 23 15  1  0
 23 22  2  0
M  END
>  <smiles>  (208) 
N#Cc1c[nH]c2c(C(=O)Nc3ccc4c(c3)CNC4)cccc12

>  <inchikey>  (208) 
LFCFADNCZRJYKM-UHFFFAOYSA-N

>  <alias>  (208) 
Z3856a

$$$$
Z3858a
     RDKit          3D

 24 27  0  0  0  0  0  0  0  0999 V2000
   -6.7120    5.4410  -13.8770 O   0  0  0  0  0  0  0  0  0  0  0  0
   -7.6830    4.7760  -14.2340 C   0  0  0  0  0  0  0  0  0  0  0  0
   -7.9830    4.5530  -15.6910 C   0  0  0  0  0  0  0  0  0  0  0  0
   -7.0120    4.7500  -16.6830 C   0  0  0  0  0  0  0  0  0  0  0  0
   -5.5640    5.1220  -16.5990 C   0  0  0  0  0  0  0  0  0  0  0  0
   -9.2530    4.1320  -16.0820 C   0  0  0  0  0  0  0  0  0  0  0  0
   -9.5520    3.9190  -17.4220 C   0  0  0  0  0  0  0  0  0  0  0  0
   -8.5960    4.1190  -18.4070 C   0  0  0  0  0  0  0  0  0  0  0  0
   -7.3280    4.5380  -18.0210 C   0  0  0  0  0  0  0  0  0  0  0  0
   -6.2060    4.7920  -18.8060 N   0  0  0  0  0  0  0  0  0  0  0  0
   -5.1230    5.1140  -18.0470 C   0  0  0  0  0  0  0  0  0  0  0  0
   -3.9910    5.3280  -18.4760 O   0  0  0  0  0  0  0  0  0  0  0  0
   -8.5460    4.2100  -13.3570 N   0  0  0  0  0  0  0  0  0  0  0  0
   -8.4920    4.2980  -11.9420 C   0  0  0  0  0  0  0  0  0  0  0  0
   -8.7970    3.1950  -11.1530 C   0  0  0  0  0  0  0  0  0  0  0  0
   -8.8420    3.3010   -9.7660 C   0  0  0  0  0  0  0  0  0  0  0  0
   -9.2230    2.1110   -8.9500 C   0  0  0  0  0  0  0  0  0  0  0  0
   -8.1120    1.8550   -8.0390 N   0  0  0  0  0  0  0  0  0  0  0  0
   -8.2480    2.5850   -6.7670 C   0  0  0  0  0  0  0  0  0  0  0  0
   -7.8000    4.0100   -6.9620 C   0  0  0  0  0  0  0  0  0  0  0  0
   -8.6830    4.7490   -7.8270 O   0  0  0  0  0  0  0  0  0  0  0  0
   -8.5470    4.5370   -9.1860 C   0  0  0  0  0  0  0  0  0  0  0  0
   -8.2080    5.6320   -9.9630 C   0  0  0  0  0  0  0  0  0  0  0  0
   -8.1910    5.5130  -11.3400 C   0  0  0  0  0  0  0  0  0  0  0  0
  2  1  2  0
  3  2  1  0
  4  3  2  0
  5  4  1  0
  6  3  1  0
  7  6  2  0
  8  7  1  0
  9  8  2  0
  9  4  1  0
 10  9  1  0
 11 10  1  0
 11  5  1  0
 12 11  2  0
 13  2  1  0
 14 13  1  0
 15 14  2  0
 16 15  1  0
 17 16  1  0
 18 17  1  0
 19 18  1  0
 20 19  1  0
 21 20  1  0
 22 21  1  0
 22 16  2  0
 23 22  1  0
 24 14  1  0
 24 23  2  0
M  END
>  <smiles>  (209) 
O=C1Cc2c(cccc2C(=O)Nc2ccc3c(c2)CNCCO3)N1

>  <inchikey>  (209) 
KDMYRCNDTBSQHQ-UHFFFAOYSA-N

>  <alias>  (209) 
Z3858a

$$$$
Z3867a
     RDKit          3D

 33 36  0  0  0  0  0  0  0  0999 V2000
  -10.0670    3.9650  -18.2120 Br  0  0  0  0  0  0  0  0  0  0  0  0
   -8.6230    4.5000  -17.0900 C   0  0  0  0  0  0  0  0  0  0  0  0
   -8.6520    4.1780  -15.7440 C   0  0  0  0  0  0  0  0  0  0  0  0
   -7.5680    5.1900  -17.6420 C   0  0  0  0  0  0  0  0  0  0  0  0
   -6.5120    5.5740  -16.8340 C   0  0  0  0  0  0  0  0  0  0  0  0
   -6.5170    5.2390  -15.4910 C   0  0  0  0  0  0  0  0  0  0  0  0
   -5.4760    5.5300  -14.6440 O   0  0  0  0  0  0  0  0  0  0  0  0
   -5.2040    6.9120  -14.3370 C   0  0  0  0  0  0  0  0  0  0  0  0
   -4.6120    7.0380  -12.9590 C   0  0  0  0  0  0  0  0  0  0  0  0
   -3.4370    7.6860  -12.8990 N   0  0  0  0  0  0  0  0  0  0  0  0
   -2.8540    7.8020  -11.6930 C   0  0  0  0  0  0  0  0  0  0  0  0
   -3.3940    7.2950  -10.5280 C   0  0  0  0  0  0  0  0  0  0  0  0
   -4.5980    6.6380  -10.6070 C   0  0  0  0  0  0  0  0  0  0  0  0
   -5.2270    6.5040  -11.8320 C   0  0  0  0  0  0  0  0  0  0  0  0
   -7.5800    4.5340  -14.9230 C   0  0  0  0  0  0  0  0  0  0  0  0
   -7.5010    4.1480  -13.4530 C   0  0  2  0  0  0  0  0  0  0  0  0
   -6.6500    2.9030  -13.2610 C   0  0  0  0  0  0  0  0  0  0  0  0
   -5.4370    3.1360  -12.7620 N   0  0  0  0  0  0  0  0  0  0  0  0
   -4.5180    2.0660  -12.3910 C   0  0  0  0  0  0  0  0  0  0  0  0
   -3.3400    1.9890  -13.4310 C   0  0  1  0  0  0  0  0  0  0  0  0
   -3.8480    2.2340  -14.6650 F   0  0  0  0  0  0  0  0  0  0  0  0
   -2.4500    2.9890  -13.1960 F   0  0  0  0  0  0  0  0  0  0  0  0
   -7.0720    1.7800  -13.5220 O   0  0  0  0  0  0  0  0  0  0  0  0
   -8.7440    4.0550  -12.7190 N   0  0  0  0  0  0  0  0  0  0  0  0
   -8.7110    4.0800  -11.3290 C   0  0  0  0  0  0  0  0  0  0  0  0
   -9.0230    2.9380  -10.5960 C   0  0  0  0  0  0  0  0  0  0  0  0
   -8.9290    2.9510   -9.2090 C   0  0  0  0  0  0  0  0  0  0  0  0
   -9.2110    1.8570   -8.2220 C   0  0  0  0  0  0  0  0  0  0  0  0
   -8.8360    2.4680   -6.9470 N   0  0  0  0  0  0  0  0  0  0  0  0
   -8.5580    3.9000   -7.0650 C   0  0  0  0  0  0  0  0  0  0  0  0
   -8.5290    4.1040   -8.5500 C   0  0  0  0  0  0  0  0  0  0  0  0
   -8.2110    5.2420   -9.2850 C   0  0  0  0  0  0  0  0  0  0  0  0
   -8.3040    5.2330  -10.6650 C   0  0  0  0  0  0  0  0  0  0  0  0
  2  1  1  0
  3  2  2  0
  4  2  1  0
  5  4  2  0
  6  5  1  0
  7  6  1  0
  8  7  1  0
  9  8  1  0
 10  9  2  0
 11 10  1  0
 12 11  2  0
 13 12  1  0
 14  9  1  0
 14 13  2  0
 15  6  2  0
 15  3  1  0
 16 15  1  0
 17 16  1  0
 18 17  1  0
 19 18  1  0
 20 19  1  0
 20 21  1  6
 22 20  1  0
 23 17  2  0
 16 24  1  6
 25 24  1  0
 26 25  2  0
 27 26  1  0
 28 27  1  0
 29 28  1  0
 30 29  1  0
 31 30  1  0
 31 27  2  0
 32 31  1  0
 33 25  1  0
 33 32  2  0
M  END
>  <smiles>  (210) 
O=C(NCC(F)F)[C@H](Nc1ccc2c(c1)CNC2)c1cc(Br)ccc1OCc1ccccn1

>  <inchikey>  (210) 
XOOVUJKPUHBGTQ-HSZRJFAPSA-N

>  <alias>  (210) 
Z3867a

$$$$
Z3880a
     RDKit          3D

 21 24  0  0  0  0  0  0  0  0999 V2000
   -6.4890    5.6080  -13.0640 O   0  0  0  0  0  0  0  0  0  0  0  0
   -7.2920    4.8450  -13.5970 C   0  0  0  0  0  0  0  0  0  0  0  0
   -7.3800    4.7490  -15.0860 C   0  0  0  0  0  0  0  0  0  0  0  0
   -6.2030    4.9490  -15.8100 C   0  0  0  0  0  0  0  0  0  0  0  0
   -6.2510    4.8790  -17.2020 C   0  0  0  0  0  0  0  0  0  0  0  0
   -5.2510    5.0400  -18.1640 N   0  0  0  0  0  0  0  0  0  0  0  0
   -5.8690    4.8680  -19.3160 C   0  0  0  0  0  0  0  0  0  0  0  0
   -7.1910    4.6090  -19.1910 N   0  0  0  0  0  0  0  0  0  0  0  0
   -7.4600    4.6140  -17.8440 C   0  0  0  0  0  0  0  0  0  0  0  0
   -8.6380    4.4230  -17.1370 C   0  0  0  0  0  0  0  0  0  0  0  0
   -8.5860    4.4970  -15.7540 C   0  0  0  0  0  0  0  0  0  0  0  0
   -8.1550    4.0640  -12.8970 N   0  0  0  0  0  0  0  0  0  0  0  0
   -8.3090    4.0270  -11.4870 C   0  0  0  0  0  0  0  0  0  0  0  0
   -8.6610    2.8480  -10.8310 C   0  0  0  0  0  0  0  0  0  0  0  0
   -8.8070    2.8360   -9.4460 C   0  0  0  0  0  0  0  0  0  0  0  0
   -9.1920    1.7070   -8.5350 C   0  0  0  0  0  0  0  0  0  0  0  0
   -8.8550    2.2630   -7.2260 N   0  0  0  0  0  0  0  0  0  0  0  0
   -8.7610    3.7240   -7.2460 C   0  0  0  0  0  0  0  0  0  0  0  0
   -8.5930    3.9910   -8.7130 C   0  0  0  0  0  0  0  0  0  0  0  0
   -8.2490    5.1680   -9.3680 C   0  0  0  0  0  0  0  0  0  0  0  0
   -8.1120    5.1900  -10.7440 C   0  0  0  0  0  0  0  0  0  0  0  0
  2  1  2  0
  3  2  1  0
  4  3  2  0
  5  4  1  0
  6  5  1  0
  7  6  2  0
  8  7  1  0
  9  8  1  0
  9  5  2  0
 10  9  1  0
 11 10  2  0
 11  3  1  0
 12  2  1  0
 13 12  1  0
 14 13  2  0
 15 14  1  0
 16 15  1  0
 17 16  1  0
 18 17  1  0
 19 18  1  0
 19 15  2  0
 20 19  1  0
 21 13  1  0
 21 20  2  0
M  END
>  <smiles>  (211) 
O=C(Nc1ccc2c(c1)CNC2)c1ccc2[nH]cnc2c1

>  <inchikey>  (211) 
SOWYVVKGDMUQEU-UHFFFAOYSA-N

>  <alias>  (211) 
Z3880a

$$$$
Z3898a
     RDKit          3D

 30 32  0  0  0  0  0  0  0  0999 V2000
   -4.0860    1.5110  -14.2540 F   0  0  0  0  0  0  0  0  0  0  0  0
   -3.5500    2.3940  -13.3690 C   0  0  1  0  0  0  0  0  0  0  0  0
   -3.2030    3.4870  -14.1040 F   0  0  0  0  0  0  0  0  0  0  0  0
   -4.6610    2.7560  -12.2960 C   0  0  0  0  0  0  0  0  0  0  0  0
   -5.7490    3.5210  -12.8910 N   0  0  0  0  0  0  0  0  0  0  0  0
   -6.8390    2.9570  -13.4140 C   0  0  0  0  0  0  0  0  0  0  0  0
   -6.9080    1.7720  -13.7360 O   0  0  0  0  0  0  0  0  0  0  0  0
   -8.0430    3.9140  -13.5910 C   0  0  2  0  0  0  0  0  0  0  0  0
   -8.0600    4.4630  -15.0120 C   0  0  0  0  0  0  0  0  0  0  0  0
   -9.0840    4.1030  -15.8850 C   0  0  0  0  0  0  0  0  0  0  0  0
   -8.9990    4.4210  -17.2240 C   0  0  0  0  0  0  0  0  0  0  0  0
  -10.3390    4.0380  -18.2710 Cl  0  0  0  0  0  0  0  0  0  0  0  0
   -7.9040    5.0750  -17.7410 C   0  0  0  0  0  0  0  0  0  0  0  0
   -6.8950    5.4760  -16.8860 C   0  0  0  0  0  0  0  0  0  0  0  0
   -6.9910    5.2010  -15.5250 C   0  0  0  0  0  0  0  0  0  0  0  0
   -6.1270    5.7150  -14.5860 O   0  0  0  0  0  0  0  0  0  0  0  0
   -4.8150    6.1080  -15.0100 C   0  0  0  0  0  0  0  0  0  0  0  0
   -4.7600    7.5960  -15.2130 C   0  0  0  0  0  0  0  0  0  0  0  0
   -4.5130    7.9140  -16.4610 O   0  0  0  0  0  0  0  0  0  0  0  0
   -4.9370    8.4100  -14.3220 O   0  0  0  0  0  0  0  0  0  0  0  0
   -8.1430    4.9450  -12.5780 N   0  0  0  0  0  0  0  0  0  0  0  0
   -8.3320    4.6880  -11.2160 C   0  0  0  0  0  0  0  0  0  0  0  0
   -8.7150    3.4290  -10.7530 C   0  0  0  0  0  0  0  0  0  0  0  0
   -8.8700    3.2010   -9.3890 C   0  0  0  0  0  0  0  0  0  0  0  0
   -9.2370    1.9380   -8.6680 C   0  0  0  0  0  0  0  0  0  0  0  0
   -9.0830    2.3260   -7.2630 N   0  0  0  0  0  0  0  0  0  0  0  0
   -8.8970    3.7640   -7.0770 C   0  0  0  0  0  0  0  0  0  0  0  0
   -8.6590    4.2340   -8.4820 C   0  0  0  0  0  0  0  0  0  0  0  0
   -8.2890    5.4920   -8.9470 C   0  0  0  0  0  0  0  0  0  0  0  0
   -8.1230    5.7180  -10.3010 C   0  0  0  0  0  0  0  0  0  0  0  0
  2  1  1  6
  3  2  1  0
  4  2  1  0
  5  4  1  0
  6  5  1  0
  7  6  2  0
  8  6  1  0
  9  8  1  0
 10  9  2  0
 11 10  1  0
 12 11  1  0
 13 11  2  0
 14 13  1  0
 15  9  1  0
 15 14  2  0
 16 15  1  0
 17 16  1  0
 18 17  1  0
 19 18  2  0
 20 18  1  0
  8 21  1  1
 22 21  1  0
 23 22  2  0
 24 23  1  0
 25 24  1  0
 26 25  1  0
 27 26  1  0
 28 27  1  0
 28 24  2  0
 29 28  1  0
 30 22  1  0
 30 29  2  0
M  END
>  <smiles>  (212) 
O=C(O)COc1ccc(Cl)cc1[C@H](Nc1ccc2c(c1)CNC2)C(=O)NCC(F)F

>  <inchikey>  (212) 
PDRRQTONPHZQCP-IBGZPJMESA-N

>  <alias>  (212) 
Z3898a

$$$$
Z3936a
     RDKit          3D

 23 26  0  0  0  0  0  0  0  0999 V2000
   -8.5450    4.8230   -6.6710 O   0  0  0  0  0  0  0  0  0  0  0  0
   -8.6730    4.0170   -7.5900 C   0  0  0  0  0  0  0  0  0  0  0  0
   -8.5330    4.2530   -9.0390 C   0  0  0  0  0  0  0  0  0  0  0  0
   -8.2270    5.4060   -9.7590 C   0  0  0  0  0  0  0  0  0  0  0  0
   -8.1440    5.3550  -11.1400 C   0  0  0  0  0  0  0  0  0  0  0  0
   -8.9800    2.7140   -7.4510 N   0  0  0  0  0  0  0  0  0  0  0  0
   -9.0770    1.9860   -8.7080 C   0  0  0  0  0  0  0  0  0  0  0  0
   -8.7500    3.0600   -9.7040 C   0  0  0  0  0  0  0  0  0  0  0  0
   -8.6590    3.0060  -11.0900 C   0  0  0  0  0  0  0  0  0  0  0  0
   -8.3670    4.1580  -11.8160 C   0  0  0  0  0  0  0  0  0  0  0  0
   -8.3650    4.1150  -13.2340 N   0  0  0  0  0  0  0  0  0  0  0  0
   -7.5330    4.7800  -14.0750 C   0  0  0  0  0  0  0  0  0  0  0  0
   -6.6220    5.5040  -13.6890 O   0  0  0  0  0  0  0  0  0  0  0  0
   -7.7960    4.6010  -15.5410 C   0  0  0  0  0  0  0  0  0  0  0  0
   -6.7820    4.7980  -16.4850 C   0  0  0  0  0  0  0  0  0  0  0  0
   -5.3410    5.1800  -16.3410 C   0  0  0  0  0  0  0  0  0  0  0  0
   -9.0670    4.2420  -15.9860 C   0  0  0  0  0  0  0  0  0  0  0  0
   -9.3200    4.0730  -17.3420 C   0  0  0  0  0  0  0  0  0  0  0  0
   -8.3170    4.2600  -18.2820 C   0  0  0  0  0  0  0  0  0  0  0  0
   -7.0490    4.6270  -17.8390 C   0  0  0  0  0  0  0  0  0  0  0  0
   -5.8900    4.8690  -18.5730 N   0  0  0  0  0  0  0  0  0  0  0  0
   -4.8380    5.1740  -17.7680 C   0  0  0  0  0  0  0  0  0  0  0  0
   -3.6830    5.3700  -18.1440 O   0  0  0  0  0  0  0  0  0  0  0  0
  2  1  2  0
  3  2  1  0
  4  3  2  0
  5  4  1  0
  6  2  1  0
  7  6  1  0
  8  7  1  0
  8  3  1  0
  9  8  2  0
 10  9  1  0
 10  5  2  0
 11 10  1  0
 12 11  1  0
 13 12  2  0
 14 12  1  0
 15 14  2  0
 16 15  1  0
 17 14  1  0
 18 17  2  0
 19 18  1  0
 20 19  2  0
 20 15  1  0
 21 20  1  0
 22 21  1  0
 22 16  1  0
 23 22  2  0
M  END
>  <smiles>  (213) 
O=C1Cc2c(cccc2C(=O)Nc2ccc3c(c2)CNC3=O)N1

>  <inchikey>  (213) 
YKUMRMVLZPSRBN-UHFFFAOYSA-N

>  <alias>  (213) 
Z3936a

$$$$
Z3941a
     RDKit          3D

 22 25  0  0  0  0  0  0  0  0999 V2000
   -6.3410    5.0860  -12.9050 O   0  0  0  0  0  0  0  0  0  0  0  0
   -7.3140    4.6800  -13.4920 C   0  0  0  0  0  0  0  0  0  0  0  0
   -7.4760    4.6860  -14.9740 C   0  0  0  0  0  0  0  0  0  0  0  0
   -6.4000    4.8980  -15.8470 C   0  0  0  0  0  0  0  0  0  0  0  0
   -4.9410    5.1430  -15.5990 C   0  0  0  0  0  0  0  0  0  0  0  0
   -8.7470    4.4780  -15.5100 C   0  0  0  0  0  0  0  0  0  0  0  0
   -8.9420    4.4840  -16.8860 C   0  0  0  0  0  0  0  0  0  0  0  0
   -7.8810    4.6990  -17.7560 C   0  0  0  0  0  0  0  0  0  0  0  0
   -6.6100    4.9000  -17.2210 C   0  0  0  0  0  0  0  0  0  0  0  0
   -5.3930    5.0900  -17.8760 N   0  0  0  0  0  0  0  0  0  0  0  0
   -4.3650    5.2340  -16.9950 C   0  0  0  0  0  0  0  0  0  0  0  0
   -3.1860    5.4030  -17.2960 O   0  0  0  0  0  0  0  0  0  0  0  0
   -8.3970    4.1470  -12.8580 O   0  0  0  0  0  0  0  0  0  0  0  0
   -8.3950    4.0820  -11.4510 C   0  0  0  0  0  0  0  0  0  0  0  0
   -8.6300    2.8710  -10.8170 C   0  0  0  0  0  0  0  0  0  0  0  0
   -8.7590    2.8310   -9.4320 C   0  0  0  0  0  0  0  0  0  0  0  0
   -9.0820    1.6710   -8.5370 C   0  0  0  0  0  0  0  0  0  0  0  0
   -8.8250    2.2430   -7.2160 N   0  0  0  0  0  0  0  0  0  0  0  0
   -8.7890    3.7010   -7.2250 C   0  0  0  0  0  0  0  0  0  0  0  0
   -8.6260    3.9920   -8.6870 C   0  0  0  0  0  0  0  0  0  0  0  0
   -8.3680    5.1970   -9.3330 C   0  0  0  0  0  0  0  0  0  0  0  0
   -8.2510    5.2450  -10.7100 C   0  0  0  0  0  0  0  0  0  0  0  0
  2  1  2  0
  3  2  1  0
  4  3  2  0
  5  4  1  0
  6  3  1  0
  7  6  2  0
  8  7  1  0
  9  8  2  0
  9  4  1  0
 10  9  1  0
 11 10  1  0
 11  5  1  0
 12 11  2  0
 13  2  1  0
 14 13  1  0
 15 14  2  0
 16 15  1  0
 17 16  1  0
 18 17  1  0
 19 18  1  0
 20 19  1  0
 20 16  2  0
 21 20  1  0
 22 14  1  0
 22 21  2  0
M  END
>  <smiles>  (214) 
O=C1Cc2c(cccc2C(=O)Oc2ccc3c(c2)CNC3)N1

>  <inchikey>  (214) 
UZXYDXHJFBZGQR-UHFFFAOYSA-N

>  <alias>  (214) 
Z3941a

$$$$
Z3956a
     RDKit          3D

 22 25  0  0  0  0  0  0  0  0999 V2000
   -6.8780    5.5230  -13.2220 O   0  0  0  0  0  0  0  0  0  0  0  0
   -7.6310    4.6730  -13.6920 C   0  0  0  0  0  0  0  0  0  0  0  0
   -7.7540    4.5000  -15.1770 C   0  0  0  0  0  0  0  0  0  0  0  0
   -6.6690    4.7500  -16.0270 C   0  0  0  0  0  0  0  0  0  0  0  0
   -5.2580    5.1650  -15.7520 C   0  0  0  0  0  0  0  0  0  0  0  0
   -8.9700    4.1100  -15.7360 C   0  0  0  0  0  0  0  0  0  0  0  0
   -9.1080    3.9810  -17.1130 C   0  0  0  0  0  0  0  0  0  0  0  0
   -8.0350    4.2290  -17.9620 C   0  0  0  0  0  0  0  0  0  0  0  0
   -6.8180    4.6090  -17.4020 C   0  0  0  0  0  0  0  0  0  0  0  0
   -5.6060    4.8810  -18.0280 N   0  0  0  0  0  0  0  0  0  0  0  0
   -4.6320    5.1800  -17.1290 C   0  0  0  0  0  0  0  0  0  0  0  0
   -3.4440    5.3610  -17.3990 O   0  0  0  0  0  0  0  0  0  0  0  0
   -8.3840    3.8430  -12.9250 N   0  0  0  0  0  0  0  0  0  0  0  0
   -8.4390    3.8140  -11.5030 C   0  0  0  0  0  0  0  0  0  0  0  0
   -8.5750    2.6270  -10.7990 C   0  0  0  0  0  0  0  0  0  0  0  0
   -8.7120    2.6610   -9.4120 C   0  0  0  0  0  0  0  0  0  0  0  0
   -9.0280    1.5620   -8.4420 C   0  0  0  0  0  0  0  0  0  0  0  0
   -8.7360    2.1980   -7.1660 N   0  0  0  0  0  0  0  0  0  0  0  0
   -8.7500    3.6450   -7.2910 C   0  0  0  0  0  0  0  0  0  0  0  0
   -8.6580    3.9030   -8.7580 C   0  0  0  0  0  0  0  0  0  0  0  0
   -8.5190    5.0530   -9.4350 N   0  0  0  0  0  0  0  0  0  0  0  0
   -8.4150    4.9960  -10.7710 C   0  0  0  0  0  0  0  0  0  0  0  0
  2  1  2  0
  3  2  1  0
  4  3  2  0
  5  4  1  0
  6  3  1  0
  7  6  2  0
  8  7  1  0
  9  8  2  0
  9  4  1  0
 10  9  1  0
 11 10  1  0
 11  5  1  0
 12 11  2  0
 13  2  1  0
 14 13  1  0
 15 14  2  0
 16 15  1  0
 17 16  1  0
 18 17  1  0
 19 18  1  0
 20 19  1  0
 20 16  2  0
 21 20  1  0
 22 14  1  0
 22 21  2  0
M  END
>  <smiles>  (215) 
O=C1Cc2c(cccc2C(=O)Nc2cnc3c(c2)CNC3)N1

>  <inchikey>  (215) 
AXMZSTIVXKXBDM-UHFFFAOYSA-N

>  <alias>  (215) 
Z3956a

$$$$
Z3970a
     RDKit          3D

 22 25  0  0  0  0  0  0  0  0999 V2000
   -6.8410    5.5900  -13.3130 O   0  0  0  0  0  0  0  0  0  0  0  0
   -7.6790    4.8080  -13.7590 C   0  0  0  0  0  0  0  0  0  0  0  0
   -7.7960    4.5740  -15.2290 C   0  0  0  0  0  0  0  0  0  0  0  0
   -6.6940    4.8450  -16.0360 C   0  0  0  0  0  0  0  0  0  0  0  0
   -8.9770    4.1100  -15.8160 C   0  0  0  0  0  0  0  0  0  0  0  0
   -9.0730    3.9290  -17.1880 C   0  0  0  0  0  0  0  0  0  0  0  0
   -7.9590    4.2090  -17.9720 C   0  0  0  0  0  0  0  0  0  0  0  0
   -6.7720    4.6620  -17.4070 C   0  0  0  0  0  0  0  0  0  0  0  0
   -5.7780    4.8660  -18.5100 C   0  0  0  0  0  0  0  0  0  0  0  0
   -7.8040    4.1140  -19.3570 N   0  0  0  0  0  0  0  0  0  0  0  0
   -6.5490    4.4580  -19.7470 C   0  0  0  0  0  0  0  0  0  0  0  0
   -6.1260    4.4170  -20.8980 O   0  0  0  0  0  0  0  0  0  0  0  0
   -8.5030    4.0650  -12.9800 N   0  0  0  0  0  0  0  0  0  0  0  0
   -8.5280    4.0270  -11.5630 C   0  0  0  0  0  0  0  0  0  0  0  0
   -8.7320    2.8420  -10.8720 C   0  0  0  0  0  0  0  0  0  0  0  0
   -8.8140    2.8610   -9.4840 C   0  0  0  0  0  0  0  0  0  0  0  0
   -9.0880    1.7510   -8.5130 C   0  0  0  0  0  0  0  0  0  0  0  0
   -8.8320    2.3710   -7.2250 N   0  0  0  0  0  0  0  0  0  0  0  0
   -8.8000    3.8150   -7.3560 C   0  0  0  0  0  0  0  0  0  0  0  0
   -8.6600    4.0860   -8.8180 C   0  0  0  0  0  0  0  0  0  0  0  0
   -8.4450    5.2330   -9.4790 N   0  0  0  0  0  0  0  0  0  0  0  0
   -8.3840    5.1910  -10.8160 C   0  0  0  0  0  0  0  0  0  0  0  0
  2  1  2  0
  3  2  1  0
  4  3  2  0
  5  3  1  0
  6  5  2  0
  7  6  1  0
  8  7  2  0
  8  4  1  0
  9  8  1  0
 10  7  1  0
 11 10  1  0
 11  9  1  0
 12 11  2  0
 13  2  1  0
 14 13  1  0
 15 14  2  0
 16 15  1  0
 17 16  1  0
 18 17  1  0
 19 18  1  0
 20 19  1  0
 20 16  2  0
 21 20  1  0
 22 14  1  0
 22 21  2  0
M  END
>  <smiles>  (216) 
O=C1Cc2cc(C(=O)Nc3cnc4c(c3)CNC4)ccc2N1

>  <inchikey>  (216) 
QMPZYBMNQVTYSC-UHFFFAOYSA-N

>  <alias>  (216) 
Z3970a

$$$$
Z3980a
     RDKit          3D

 24 27  0  0  0  0  0  0  0  0999 V2000
  -10.6350    4.0840  -17.9510 Cl  0  0  0  0  0  0  0  0  0  0  0  0
   -9.0900    4.3660  -17.1950 C   0  0  0  0  0  0  0  0  0  0  0  0
   -7.9770    4.5140  -17.9970 C   0  0  0  0  0  0  0  0  0  0  0  0
   -6.7340    4.7100  -17.4030 C   0  0  0  0  0  0  0  0  0  0  0  0
   -6.6430    4.7410  -16.0020 C   0  0  0  0  0  0  0  0  0  0  0  0
   -5.3250    4.9430  -15.6690 N   0  0  0  0  0  0  0  0  0  0  0  0
   -4.5940    5.0440  -16.8220 C   0  0  0  0  0  0  0  0  0  0  0  0
   -5.4040    4.9120  -17.9120 C   0  0  0  0  0  0  0  0  0  0  0  0
   -5.0000    4.9680  -19.3590 C   0  0  0  0  0  0  0  0  0  0  0  0
   -5.7540    6.0300  -20.0420 N   0  0  0  0  0  0  0  0  0  0  0  0
   -9.0140    4.4100  -15.8090 C   0  0  0  0  0  0  0  0  0  0  0  0
   -7.7730    4.5920  -15.1810 C   0  0  0  0  0  0  0  0  0  0  0  0
   -7.6380    4.6570  -13.6890 C   0  0  0  0  0  0  0  0  0  0  0  0
   -6.7100    5.2830  -13.1830 O   0  0  0  0  0  0  0  0  0  0  0  0
   -8.5660    3.9960  -12.9540 N   0  0  0  0  0  0  0  0  0  0  0  0
   -8.6300    3.9750  -11.5340 C   0  0  0  0  0  0  0  0  0  0  0  0
   -8.8140    2.7900  -10.8240 C   0  0  0  0  0  0  0  0  0  0  0  0
   -8.8870    2.8110   -9.4360 C   0  0  0  0  0  0  0  0  0  0  0  0
   -9.1520    1.6850   -8.4820 C   0  0  0  0  0  0  0  0  0  0  0  0
   -8.8560    2.3140   -7.1890 N   0  0  0  0  0  0  0  0  0  0  0  0
   -8.8320    3.7760   -7.2670 C   0  0  0  0  0  0  0  0  0  0  0  0
   -8.7460    4.0070   -8.7470 C   0  0  0  0  0  0  0  0  0  0  0  0
   -8.5490    5.1890   -9.4520 C   0  0  0  0  0  0  0  0  0  0  0  0
   -8.4980    5.1770  -10.8360 C   0  0  0  0  0  0  0  0  0  0  0  0
  2  1  1  0
  3  2  2  0
  4  3  1  0
  5  4  2  0
  6  5  1  0
  7  6  1  0
  8  4  1  0
  8  7  2  0
  9  8  1  0
 10  9  1  0
 11  2  1  0
 12 11  2  0
 12  5  1  0
 13 12  1  0
 14 13  2  0
 15 13  1  0
 16 15  1  0
 17 16  2  0
 18 17  1  0
 19 18  1  0
 20 19  1  0
 21 20  1  0
 22 21  1  0
 22 18  2  0
 23 22  1  0
 24 16  1  0
 24 23  2  0
M  END
>  <smiles>  (217) 
NCc1c[nH]c2c(C(=O)Nc3ccc4c(c3)CNC4)cc(Cl)cc12

>  <inchikey>  (217) 
QRGKLYVSRYJBTB-UHFFFAOYSA-N

>  <alias>  (217) 
Z3980a

$$$$
Z4008a
     RDKit          3D

 21 24  0  0  0  0  0  0  0  0999 V2000
   -6.4170    5.3030  -12.7970 O   0  0  0  0  0  0  0  0  0  0  0  0
   -7.3050    4.6280  -13.3130 C   0  0  0  0  0  0  0  0  0  0  0  0
   -7.4290    4.5340  -14.7980 C   0  0  0  0  0  0  0  0  0  0  0  0
   -6.3150    4.7880  -15.5980 C   0  0  0  0  0  0  0  0  0  0  0  0
   -6.4370    4.7160  -16.9880 C   0  0  0  0  0  0  0  0  0  0  0  0
   -5.4240    4.9470  -17.9200 N   0  0  0  0  0  0  0  0  0  0  0  0
   -5.8760    4.7730  -19.1160 C   0  0  0  0  0  0  0  0  0  0  0  0
   -7.5390    4.3200  -19.2720 S   0  0  0  0  0  0  0  0  0  0  0  0
   -7.6760    4.3700  -17.5450 C   0  0  0  0  0  0  0  0  0  0  0  0
   -8.7860    4.1190  -16.7500 C   0  0  0  0  0  0  0  0  0  0  0  0
   -8.6510    4.2070  -15.3780 C   0  0  0  0  0  0  0  0  0  0  0  0
   -8.2400    3.9530  -12.6000 N   0  0  0  0  0  0  0  0  0  0  0  0
   -8.3700    3.9260  -11.1890 C   0  0  0  0  0  0  0  0  0  0  0  0
   -8.6560    2.7270  -10.5460 C   0  0  0  0  0  0  0  0  0  0  0  0
   -8.7040    2.6730   -9.1560 C   0  0  0  0  0  0  0  0  0  0  0  0
   -8.9640    1.4990   -8.2600 C   0  0  0  0  0  0  0  0  0  0  0  0
   -8.7430    2.0540   -6.9290 N   0  0  0  0  0  0  0  0  0  0  0  0
   -8.5890    3.5200   -6.9400 C   0  0  0  0  0  0  0  0  0  0  0  0
   -8.4910    3.8210   -8.4060 C   0  0  0  0  0  0  0  0  0  0  0  0
   -8.2320    5.0260   -9.0510 C   0  0  0  0  0  0  0  0  0  0  0  0
   -8.1690    5.0790  -10.4340 C   0  0  0  0  0  0  0  0  0  0  0  0
  2  1  2  0
  3  2  1  0
  4  3  2  0
  5  4  1  0
  6  5  1  0
  7  6  2  0
  8  7  1  0
  9  8  1  0
  9  5  2  0
 10  9  1  0
 11 10  2  0
 11  3  1  0
 12  2  1  0
 13 12  1  0
 14 13  2  0
 15 14  1  0
 16 15  1  0
 17 16  1  0
 18 17  1  0
 19 18  1  0
 19 15  2  0
 20 19  1  0
 21 13  1  0
 21 20  2  0
M  END
>  <smiles>  (218) 
O=C(Nc1ccc2c(c1)CNC2)c1ccc2scnc2c1

>  <inchikey>  (218) 
ZIKAHJGVACLWJM-UHFFFAOYSA-N

>  <alias>  (218) 
Z4008a

$$$$
Z4017a
     RDKit          3D

 23 26  0  0  0  0  0  0  0  0999 V2000
   -6.5820    5.3400  -12.8530 O   0  0  0  0  0  0  0  0  0  0  0  0
   -7.4620    4.6700  -13.3860 C   0  0  0  0  0  0  0  0  0  0  0  0
   -7.5230    4.5290  -14.8750 C   0  0  0  0  0  0  0  0  0  0  0  0
   -8.7130    4.3000  -15.5600 C   0  0  0  0  0  0  0  0  0  0  0  0
   -6.3340    4.6830  -15.5990 C   0  0  0  0  0  0  0  0  0  0  0  0
   -6.3260    4.5980  -16.9800 C   0  0  0  0  0  0  0  0  0  0  0  0
   -7.5040    4.3600  -17.6820 C   0  0  0  0  0  0  0  0  0  0  0  0
   -8.7020    4.2330  -16.9500 C   0  0  0  0  0  0  0  0  0  0  0  0
  -10.0660    4.0170  -18.0040 S   0  0  0  0  0  0  0  0  0  0  0  0
   -9.0460    4.0400  -19.3910 C   0  0  0  0  0  0  0  0  0  0  0  0
   -7.7300    4.2150  -19.0920 C   0  0  0  0  0  0  0  0  0  0  0  0
   -6.7150    4.1520  -20.1050 C   0  0  0  0  0  0  0  0  0  0  0  0
   -5.8720    4.0830  -20.8690 N   0  0  0  0  0  0  0  0  0  0  0  0
   -8.3930    3.9900  -12.6710 N   0  0  0  0  0  0  0  0  0  0  0  0
   -8.4880    3.9570  -11.2470 C   0  0  0  0  0  0  0  0  0  0  0  0
   -8.7310    2.7520  -10.5930 C   0  0  0  0  0  0  0  0  0  0  0  0
   -8.7680    2.7060   -9.1980 C   0  0  0  0  0  0  0  0  0  0  0  0
   -9.0410    1.5410   -8.2940 C   0  0  0  0  0  0  0  0  0  0  0  0
   -8.7970    2.1090   -6.9550 N   0  0  0  0  0  0  0  0  0  0  0  0
   -8.6340    3.5700   -6.9870 C   0  0  0  0  0  0  0  0  0  0  0  0
   -8.5770    3.8670   -8.4570 C   0  0  0  0  0  0  0  0  0  0  0  0
   -8.3520    5.0740   -9.1120 C   0  0  0  0  0  0  0  0  0  0  0  0
   -8.3020    5.1180  -10.4990 C   0  0  0  0  0  0  0  0  0  0  0  0
  2  1  2  0
  3  2  1  0
  4  3  2  0
  5  3  1  0
  6  5  2  0
  7  6  1  0
  8  7  2  0
  8  4  1  0
  9  8  1  0
 10  9  1  0
 11 10  2  0
 11  7  1  0
 12 11  1  0
 13 12  3  0
 14  2  1  0
 15 14  1  0
 16 15  2  0
 17 16  1  0
 18 17  1  0
 19 18  1  0
 20 19  1  0
 21 20  1  0
 21 17  2  0
 22 21  1  0
 23 15  1  0
 23 22  2  0
M  END
>  <smiles>  (219) 
N#Cc1csc2cc(C(=O)Nc3ccc4c(c3)CNC4)ccc12

>  <inchikey>  (219) 
PWVXJLXKWPJFRW-UHFFFAOYSA-N

>  <alias>  (219) 
Z4017a

$$$$
Z4019a
     RDKit          3D

 25 29  0  0  0  0  0  0  0  0999 V2000
   -6.5850    5.1590  -13.1840 O   0  0  0  0  0  0  0  0  0  0  0  0
   -7.5400    4.5550  -13.6660 C   0  0  0  0  0  0  0  0  0  0  0  0
   -7.7160    4.4750  -15.1530 C   0  0  0  0  0  0  0  0  0  0  0  0
   -6.6530    4.7530  -16.0320 C   0  0  0  0  0  0  0  0  0  0  0  0
   -5.3610    5.0850  -15.7970 N   0  0  0  0  0  0  0  0  0  0  0  0
   -4.6580    5.2250  -16.9640 N   0  0  0  0  0  0  0  0  0  0  0  0
   -5.5000    4.9900  -17.9500 C   0  0  0  0  0  0  0  0  0  0  0  0
   -5.0670    5.0650  -19.3890 C   0  0  1  0  0  0  0  0  0  0  0  0
   -4.8150    6.5080  -19.8900 C   0  0  0  0  0  0  0  0  0  0  0  0
   -3.5500    6.0510  -20.5180 N   0  0  0  0  0  0  0  0  0  0  0  0
   -3.5620    4.8280  -19.6820 C   0  0  0  0  0  0  0  0  0  0  0  0
   -6.8110    4.6800  -17.4280 C   0  0  0  0  0  0  0  0  0  0  0  0
   -8.0550    4.3380  -17.9520 C   0  0  0  0  0  0  0  0  0  0  0  0
   -9.1120    4.0640  -17.0950 C   0  0  0  0  0  0  0  0  0  0  0  0
   -8.9440    4.1260  -15.7160 C   0  0  0  0  0  0  0  0  0  0  0  0
   -8.4780    3.9370  -12.9100 N   0  0  0  0  0  0  0  0  0  0  0  0
   -8.5400    3.9310  -11.4910 C   0  0  0  0  0  0  0  0  0  0  0  0
   -8.8400    2.7650  -10.7930 C   0  0  0  0  0  0  0  0  0  0  0  0
   -8.8950    2.7770   -9.4030 C   0  0  0  0  0  0  0  0  0  0  0  0
   -9.1920    1.6580   -8.4500 C   0  0  0  0  0  0  0  0  0  0  0  0
   -8.7980    2.2490   -7.1720 N   0  0  0  0  0  0  0  0  0  0  0  0
   -8.7260    3.7080   -7.2270 C   0  0  0  0  0  0  0  0  0  0  0  0
   -8.6400    3.9490   -8.7060 C   0  0  0  0  0  0  0  0  0  0  0  0
   -8.3440    5.1140   -9.4040 C   0  0  0  0  0  0  0  0  0  0  0  0
   -8.2970    5.1080  -10.7860 C   0  0  0  0  0  0  0  0  0  0  0  0
  2  1  2  0
  3  2  1  0
  4  3  2  0
  5  4  1  0
  6  5  1  0
  7  6  2  0
  8  7  1  1
  9  8  1  0
 10  9  1  0
 11  8  1  0
 11 10  1  0
 12  7  1  0
 12  4  1  0
 13 12  2  0
 14 13  1  0
 15 14  2  0
 15  3  1  0
 16  2  1  0
 17 16  1  0
 18 17  2  0
 19 18  1  0
 20 19  1  0
 21 20  1  0
 22 21  1  0
 23 22  1  0
 23 19  2  0
 24 23  1  0
 25 17  1  0
 25 24  2  0
M  END
>  <smiles>  (220) 
O=C(Nc1ccc2c(c1)CNC2)c1cccc2c(C3CNC3)n[nH]c12

>  <inchikey>  (220) 
RPFPGGUOMNRXSM-UHFFFAOYSA-N

>  <alias>  (220) 
Z4019a

$$$$
Z4020a
     RDKit          3D

 24 28  0  0  0  0  0  0  0  0999 V2000
   -5.9980    4.3610  -20.7150 O   0  0  0  0  0  0  0  0  0  0  0  0
   -6.4930    4.4880  -19.6060 C   0  0  0  0  0  0  0  0  0  0  0  0
   -7.6750    3.9750  -19.1830 N   0  0  0  0  0  0  0  0  0  0  0  0
   -7.8880    4.2170  -17.8140 C   0  0  0  0  0  0  0  0  0  0  0  0
   -8.9420    3.8200  -17.0000 C   0  0  0  0  0  0  0  0  0  0  0  0
   -8.8550    4.0620  -15.6400 C   0  0  0  0  0  0  0  0  0  0  0  0
   -5.8680    5.1850  -18.4130 C   0  0  1  0  0  0  0  0  0  0  0  0
   -4.3480    5.2770  -18.3010 C   0  0  0  0  0  0  0  0  0  0  0  0
   -5.1290    6.5020  -18.6280 C   0  0  0  0  0  0  0  0  0  0  0  0
   -6.7860    4.8830  -17.2840 C   0  0  0  0  0  0  0  0  0  0  0  0
   -6.7060    5.1220  -15.9220 C   0  0  0  0  0  0  0  0  0  0  0  0
   -7.7380    4.6970  -15.0900 C   0  0  0  0  0  0  0  0  0  0  0  0
   -7.5950    4.8840  -13.6140 C   0  0  0  0  0  0  0  0  0  0  0  0
   -6.7850    5.6880  -13.1570 O   0  0  0  0  0  0  0  0  0  0  0  0
   -8.4050    4.1160  -12.8450 N   0  0  0  0  0  0  0  0  0  0  0  0
   -8.4920    4.1110  -11.4320 C   0  0  0  0  0  0  0  0  0  0  0  0
   -8.7740    2.9220  -10.7670 C   0  0  0  0  0  0  0  0  0  0  0  0
   -8.8810    2.9090   -9.3820 C   0  0  0  0  0  0  0  0  0  0  0  0
   -9.2110    1.7680   -8.4670 C   0  0  0  0  0  0  0  0  0  0  0  0
   -8.9780    2.3630   -7.1530 N   0  0  0  0  0  0  0  0  0  0  0  0
   -8.8670    3.8230   -7.1870 C   0  0  0  0  0  0  0  0  0  0  0  0
   -8.6930    4.0780   -8.6560 C   0  0  0  0  0  0  0  0  0  0  0  0
   -8.4030    5.2620   -9.3220 C   0  0  0  0  0  0  0  0  0  0  0  0
   -8.3070    5.2820  -10.7020 C   0  0  0  0  0  0  0  0  0  0  0  0
  2  1  2  0
  3  2  1  0
  4  3  1  0
  5  4  2  0
  6  5  1  0
  7  2  1  0
  7  8  1  1
  9  7  1  0
  9  8  1  0
 10  7  1  0
 10  4  1  0
 11 10  2  0
 12 11  1  0
 12  6  2  0
 13 12  1  0
 14 13  2  0
 15 13  1  0
 16 15  1  0
 17 16  2  0
 18 17  1  0
 19 18  1  0
 20 19  1  0
 21 20  1  0
 22 21  1  0
 22 18  2  0
 23 22  1  0
 24 16  1  0
 24 23  2  0
M  END
>  <smiles>  (221) 
O=C(Nc1ccc2c(c1)CNC2)c1ccc2c(c1)C1(CC1)C(=O)N2

>  <inchikey>  (221) 
HNQCLDOLKLVJSE-UHFFFAOYSA-N

>  <alias>  (221) 
Z4020a

$$$$
Z4025a
     RDKit          3D

 25 28  0  0  0  0  0  0  0  0999 V2000
   -6.8960    5.6760  -14.1020 O   0  0  0  0  0  0  0  0  0  0  0  0
   -7.6930    4.8330  -14.4970 C   0  0  0  0  0  0  0  0  0  0  0  0
   -7.9170    4.5910  -15.9650 C   0  0  0  0  0  0  0  0  0  0  0  0
   -6.9200    4.8310  -16.9260 C   0  0  0  0  0  0  0  0  0  0  0  0
   -5.4900    5.2600  -16.7990 C   0  0  0  0  0  0  0  0  0  0  0  0
   -9.1530    4.1070  -16.3930 C   0  0  0  0  0  0  0  0  0  0  0  0
   -9.3950    3.8680  -17.7390 C   0  0  0  0  0  0  0  0  0  0  0  0
   -8.4110    4.0970  -18.6900 C   0  0  0  0  0  0  0  0  0  0  0  0
   -7.1790    4.5860  -18.2690 C   0  0  0  0  0  0  0  0  0  0  0  0
   -6.0310    4.8490  -19.0170 N   0  0  0  0  0  0  0  0  0  0  0  0
   -4.9830    5.1960  -18.2240 C   0  0  0  0  0  0  0  0  0  0  0  0
   -3.8220    5.3480  -18.6020 O   0  0  0  0  0  0  0  0  0  0  0  0
   -8.4370    4.0720  -13.6240 N   0  0  0  0  0  0  0  0  0  0  0  0
   -8.3760    4.1430  -12.2200 C   0  0  0  0  0  0  0  0  0  0  0  0
   -8.0520    5.1920  -11.3960 C   0  0  0  0  0  0  0  0  0  0  0  0
   -8.1540    4.7310  -10.1370 N   0  0  0  0  0  0  0  0  0  0  0  0
   -8.5380    3.4310  -10.0910 N   0  0  0  0  0  0  0  0  0  0  0  0
   -8.6660    3.0810  -11.3600 C   0  0  0  0  0  0  0  0  0  0  0  0
   -7.8870    5.4520   -8.8830 C   0  0  0  0  0  0  0  0  0  0  0  0
   -6.4710    5.2690   -8.3820 C   0  0  0  0  0  0  0  0  0  0  0  0
   -5.6170    4.3440   -8.9540 C   0  0  0  0  0  0  0  0  0  0  0  0
   -4.3330    4.2140   -8.4600 C   0  0  0  0  0  0  0  0  0  0  0  0
   -3.8530    4.9370   -7.4430 N   0  0  0  0  0  0  0  0  0  0  0  0
   -4.6870    5.8290   -6.8970 C   0  0  0  0  0  0  0  0  0  0  0  0
   -5.9850    6.0230   -7.3260 C   0  0  0  0  0  0  0  0  0  0  0  0
  2  1  2  0
  3  2  1  0
  4  3  2  0
  5  4  1  0
  6  3  1  0
  7  6  2  0
  8  7  1  0
  9  8  2  0
  9  4  1  0
 10  9  1  0
 11 10  1  0
 11  5  1  0
 12 11  2  0
 13  2  1  0
 14 13  1  0
 15 14  2  0
 16 15  1  0
 17 16  1  0
 18 14  1  0
 18 17  2  0
 19 16  1  0
 20 19  1  0
 21 20  2  0
 22 21  1  0
 23 22  2  0
 24 23  1  0
 25 20  1  0
 25 24  2  0
M  END
>  <smiles>  (222) 
O=C1Cc2c(cccc2C(=O)Nc2cnn(Cc3ccncc3)c2)N1

>  <inchikey>  (222) 
MBDWRZYGZSFUAL-UHFFFAOYSA-N

>  <alias>  (222) 
Z4025a

$$$$
Z4031a
     RDKit          3D

 25 29  0  0  0  0  0  0  0  0999 V2000
  -10.3340    3.8530  -17.5810 F   0  0  0  0  0  0  0  0  0  0  0  0
   -9.1290    4.1480  -17.0210 C   0  0  0  0  0  0  0  0  0  0  0  0
   -9.0330    4.1970  -15.6420 C   0  0  0  0  0  0  0  0  0  0  0  0
   -8.0870    4.4180  -17.8680 C   0  0  0  0  0  0  0  0  0  0  0  0
   -6.8810    4.7860  -17.2880 C   0  0  0  0  0  0  0  0  0  0  0  0
   -6.7130    4.8760  -15.8930 C   0  0  0  0  0  0  0  0  0  0  0  0
   -5.3670    5.2810  -15.7270 C   0  0  0  0  0  0  0  0  0  0  0  0
   -4.7600    5.4280  -16.8900 N   0  0  0  0  0  0  0  0  0  0  0  0
   -5.6890    5.1250  -17.8420 N   0  0  0  0  0  0  0  0  0  0  0  0
   -7.8130    4.5720  -15.0680 C   0  0  0  0  0  0  0  0  0  0  0  0
   -7.6770    4.7240  -13.5770 C   0  0  0  0  0  0  0  0  0  0  0  0
   -6.8080    5.4530  -13.1110 O   0  0  0  0  0  0  0  0  0  0  0  0
   -8.5260    4.0100  -12.7950 N   0  0  0  0  0  0  0  0  0  0  0  0
   -8.5540    3.9950  -11.3680 C   0  0  0  0  0  0  0  0  0  0  0  0
   -8.8050    2.8050  -10.6850 C   0  0  0  0  0  0  0  0  0  0  0  0
   -8.8580    2.7990   -9.2940 C   0  0  0  0  0  0  0  0  0  0  0  0
   -9.1130    1.6630   -8.3490 C   0  0  0  0  0  0  0  0  0  0  0  0
   -8.8470    2.2610   -7.0180 N   0  0  0  0  0  0  0  0  0  0  0  0
   -8.9310    3.7270   -7.1180 C   0  0  1  0  0  0  0  0  0  0  0  0
   -7.9190    4.3700   -6.1590 C   0  0  2  0  0  0  0  0  0  0  0  0
   -8.1540    4.3180   -4.6800 C   0  0  0  0  0  0  0  0  0  0  0  0
   -8.2990    5.6120   -5.4110 C   0  0  0  0  0  0  0  0  0  0  0  0
   -8.6700    3.9700   -8.5870 C   0  0  0  0  0  0  0  0  0  0  0  0
   -8.3890    5.1550   -9.2550 C   0  0  0  0  0  0  0  0  0  0  0  0
   -8.3380    5.1680  -10.6410 C   0  0  0  0  0  0  0  0  0  0  0  0
  2  1  1  0
  3  2  2  0
  4  2  1  0
  5  4  2  0
  6  5  1  0
  7  6  1  0
  8  7  2  0
  9  5  1  0
  9  8  1  0
 10  6  2  0
 10  3  1  0
 11 10  1  0
 12 11  2  0
 13 11  1  0
 14 13  1  0
 15 14  2  0
 16 15  1  0
 17 16  1  0
 18 17  1  0
 19 18  1  6
 20 19  1  0
 20 21  1  1
 22 20  1  0
 22 21  1  0
 23 19  1  0
 23 16  2  0
 24 23  1  0
 25 14  1  0
 25 24  2  0
M  END
>  <smiles>  (223) 
O=C(Nc1ccc2c(c1)CN[C@H]2C1CC1)c1cc(F)cc2[nH]ncc12

>  <inchikey>  (223) 
SZOHOEHZGBAMSJ-SFHVURJKSA-N

>  <alias>  (223) 
Z4031a

$$$$
Z4039a
     RDKit          3D

 22 25  0  0  0  0  0  0  0  0999 V2000
   -6.2330    4.9080  -12.6220 O   0  0  0  0  0  0  0  0  0  0  0  0
   -7.2830    4.7410  -13.1890 C   0  0  0  0  0  0  0  0  0  0  0  0
   -7.4550    4.7570  -14.6630 C   0  0  0  0  0  0  0  0  0  0  0  0
   -6.3770    5.0190  -15.5060 C   0  0  0  0  0  0  0  0  0  0  0  0
   -8.6920    4.4060  -15.2190 C   0  0  0  0  0  0  0  0  0  0  0  0
   -8.8460    4.2690  -16.5890 C   0  0  0  0  0  0  0  0  0  0  0  0
   -7.7480    4.5040  -17.4070 C   0  0  0  0  0  0  0  0  0  0  0  0
   -6.5220    4.8930  -16.8810 C   0  0  0  0  0  0  0  0  0  0  0  0
   -5.5640    5.0760  -18.0200 C   0  0  0  0  0  0  0  0  0  0  0  0
   -7.6320    4.3610  -18.7890 N   0  0  0  0  0  0  0  0  0  0  0  0
   -6.3830    4.6700  -19.2250 C   0  0  0  0  0  0  0  0  0  0  0  0
   -6.0010    4.6100  -20.3890 O   0  0  0  0  0  0  0  0  0  0  0  0
   -8.4590    4.4490  -12.5470 O   0  0  0  0  0  0  0  0  0  0  0  0
   -8.4970    4.3810  -11.1410 C   0  0  0  0  0  0  0  0  0  0  0  0
   -8.7850    3.1660  -10.5340 C   0  0  0  0  0  0  0  0  0  0  0  0
   -8.8450    3.0840   -9.1470 C   0  0  0  0  0  0  0  0  0  0  0  0
   -9.1710    1.9060   -8.2770 C   0  0  0  0  0  0  0  0  0  0  0  0
   -8.7970    2.4090   -6.9570 N   0  0  0  0  0  0  0  0  0  0  0  0
   -8.6780    3.8670   -6.9120 C   0  0  0  0  0  0  0  0  0  0  0  0
   -8.6010    4.2080   -8.3700 C   0  0  0  0  0  0  0  0  0  0  0  0
   -8.3180    5.4240   -8.9880 C   0  0  0  0  0  0  0  0  0  0  0  0
   -8.2680    5.5150  -10.3690 C   0  0  0  0  0  0  0  0  0  0  0  0
  2  1  2  0
  3  2  1  0
  4  3  2  0
  5  3  1  0
  6  5  2  0
  7  6  1  0
  8  7  2  0
  8  4  1  0
  9  8  1  0
 10  7  1  0
 11 10  1  0
 11  9  1  0
 12 11  2  0
 13  2  1  0
 14 13  1  0
 15 14  2  0
 16 15  1  0
 17 16  1  0
 18 17  1  0
 19 18  1  0
 20 19  1  0
 20 16  2  0
 21 20  1  0
 22 14  1  0
 22 21  2  0
M  END
>  <smiles>  (224) 
O=C1Cc2cc(C(=O)Oc3ccc4c(c3)CNC4)ccc2N1

>  <inchikey>  (224) 
DSHJHVHVSMULGX-UHFFFAOYSA-N

>  <alias>  (224) 
Z4039a

$$$$
Z4047a
     RDKit          3D

 23 26  0  0  0  0  0  0  0  0999 V2000
   -8.5330    4.4550   -7.8050 F   0  0  0  0  0  0  0  0  0  0  0  0
   -8.4500    4.4280   -9.1610 C   0  0  0  0  0  0  0  0  0  0  0  0
   -8.3370    5.6150   -9.8320 C   0  0  0  0  0  0  0  0  0  0  0  0
   -8.3240    5.5910  -11.2140 C   0  0  0  0  0  0  0  0  0  0  0  0
   -8.5250    3.2190   -9.7950 C   0  0  0  0  0  0  0  0  0  0  0  0
   -8.5020    3.1970  -11.1780 C   0  0  0  0  0  0  0  0  0  0  0  0
   -8.4120    4.3820  -11.8970 C   0  0  0  0  0  0  0  0  0  0  0  0
   -8.4130    4.3350  -13.3110 N   0  0  0  0  0  0  0  0  0  0  0  0
   -7.6160    5.0520  -14.1370 C   0  0  0  0  0  0  0  0  0  0  0  0
   -6.8020    5.8790  -13.7330 O   0  0  0  0  0  0  0  0  0  0  0  0
   -7.7260    4.7410  -15.5970 C   0  0  0  0  0  0  0  0  0  0  0  0
   -6.7020    5.0860  -16.4930 C   0  0  0  0  0  0  0  0  0  0  0  0
   -6.8150    4.8440  -17.8730 C   0  0  0  0  0  0  0  0  0  0  0  0
   -7.9810    4.2640  -18.3650 C   0  0  0  0  0  0  0  0  0  0  0  0
   -8.9960    3.9110  -17.4870 C   0  0  0  0  0  0  0  0  0  0  0  0
   -8.8680    4.1350  -16.1210 C   0  0  0  0  0  0  0  0  0  0  0  0
   -5.4660    5.6000  -16.2820 N   0  0  0  0  0  0  0  0  0  0  0  0
   -4.7570    5.6930  -17.4480 N   0  0  0  0  0  0  0  0  0  0  0  0
   -5.5350    5.2520  -18.4110 C   0  0  0  0  0  0  0  0  0  0  0  0
   -5.0700    5.2000  -19.8400 C   0  0  1  0  0  0  0  0  0  0  0  0
   -4.9200    6.5730  -20.5450 C   0  0  0  0  0  0  0  0  0  0  0  0
   -3.6090    6.1160  -21.0690 N   0  0  0  0  0  0  0  0  0  0  0  0
   -3.5410    5.0360  -20.0550 C   0  0  0  0  0  0  0  0  0  0  0  0
  2  1  1  0
  3  2  2  0
  4  3  1  0
  5  2  1  0
  6  5  2  0
  7  6  1  0
  7  4  2  0
  8  7  1  0
  9  8  1  0
 10  9  2  0
 11  9  1  0
 12 11  2  0
 13 12  1  0
 14 13  2  0
 15 14  1  0
 16 15  2  0
 16 11  1  0
 17 12  1  0
 18 17  1  0
 19 13  1  0
 19 18  2  0
 20 19  1  1
 21 20  1  0
 22 21  1  0
 23 20  1  0
 23 22  1  0
M  END
>  <smiles>  (225) 
O=C(Nc1ccc(F)cc1)c1cccc2c(C3CNC3)n[nH]c12

>  <inchikey>  (225) 
GLZDBMWMMIFDGO-UHFFFAOYSA-N

>  <alias>  (225) 
Z4047a

$$$$
Z4066a
     RDKit          3D

 27 31  0  0  0  0  0  0  0  0999 V2000
   -6.4400    5.4060  -13.0260 O   0  0  0  0  0  0  0  0  0  0  0  0
   -7.2790    4.6740  -13.5540 C   0  0  0  0  0  0  0  0  0  0  0  0
   -8.1790    3.9410  -12.8450 N   0  0  0  0  0  0  0  0  0  0  0  0
   -8.2980    3.8980  -11.4230 C   0  0  0  0  0  0  0  0  0  0  0  0
   -8.5810    2.7180  -10.7350 C   0  0  0  0  0  0  0  0  0  0  0  0
   -8.7230    2.7300   -9.3480 C   0  0  0  0  0  0  0  0  0  0  0  0
   -9.1150    1.6190   -8.4210 C   0  0  0  0  0  0  0  0  0  0  0  0
   -8.9980    2.2500   -7.1030 N   0  0  0  0  0  0  0  0  0  0  0  0
   -8.7530    3.6860   -7.1730 C   0  0  0  0  0  0  0  0  0  0  0  0
   -8.5520    3.9140   -8.6420 C   0  0  0  0  0  0  0  0  0  0  0  0
   -8.2570    5.0860   -9.3270 C   0  0  0  0  0  0  0  0  0  0  0  0
   -8.1320    5.0820  -10.7050 C   0  0  0  0  0  0  0  0  0  0  0  0
   -7.3050    4.5330  -15.0480 C   0  0  0  0  0  0  0  0  0  0  0  0
   -6.1560    4.8300  -15.8040 C   0  0  0  0  0  0  0  0  0  0  0  0
   -6.1850    4.9050  -17.2100 C   0  0  0  0  0  0  0  0  0  0  0  0
   -7.3810    4.6170  -17.8710 C   0  0  0  0  0  0  0  0  0  0  0  0
   -8.5120    4.2780  -17.1360 C   0  0  0  0  0  0  0  0  0  0  0  0
   -8.4810    4.2410  -15.7460 C   0  0  0  0  0  0  0  0  0  0  0  0
   -4.8820    5.0850  -15.4170 N   0  0  0  0  0  0  0  0  0  0  0  0
   -4.0700    5.3440  -16.4870 N   0  0  0  0  0  0  0  0  0  0  0  0
   -4.8220    5.2760  -17.5530 C   0  0  0  0  0  0  0  0  0  0  0  0
   -4.2740    5.7550  -18.8710 C   0  0  1  0  0  0  0  0  0  0  0  0
   -3.4460    4.7000  -19.6180 C   0  0  0  0  0  0  0  0  0  0  0  0
   -2.7990    5.2760  -20.8720 C   0  0  0  0  0  0  0  0  0  0  0  0
   -3.2220    6.6770  -21.1290 N   0  0  0  0  0  0  0  0  0  0  0  0
   -4.7030    6.8220  -21.1300 C   0  0  0  0  0  0  0  0  0  0  0  0
   -5.3140    6.3900  -19.8030 C   0  0  0  0  0  0  0  0  0  0  0  0
  2  1  2  0
  3  2  1  0
  4  3  1  0
  5  4  2  0
  6  5  1  0
  7  6  1  0
  8  7  1  0
  9  8  1  0
 10  9  1  0
 10  6  2  0
 11 10  1  0
 12  4  1  0
 12 11  2  0
 13  2  1  0
 14 13  2  0
 15 14  1  0
 16 15  2  0
 17 16  1  0
 18 17  2  0
 18 13  1  0
 19 14  1  0
 20 19  1  0
 21 15  1  0
 21 20  2  0
 22 21  1  1
 23 22  1  0
 24 23  1  0
 25 24  1  0
 26 25  1  0
 27 26  1  0
 27 22  1  0
M  END
>  <smiles>  (226) 
O=C(Nc1ccc2c(c1)CNC2)c1cccc2c(C3CCNCC3)n[nH]c12

>  <inchikey>  (226) 
WOTHCGMLCWZPQZ-UHFFFAOYSA-N

>  <alias>  (226) 
Z4066a

$$$$
Z4070a
     RDKit          3D

 25 28  0  0  0  0  0  0  0  0999 V2000
  -10.4620    4.0900  -17.9790 Cl  0  0  0  0  0  0  0  0  0  0  0  0
   -8.9390    4.2900  -17.1450 C   0  0  0  0  0  0  0  0  0  0  0  0
   -7.7960    4.4940  -17.8940 C   0  0  0  0  0  0  0  0  0  0  0  0
   -6.5840    4.6990  -17.2470 C   0  0  0  0  0  0  0  0  0  0  0  0
   -6.5580    4.7110  -15.8380 C   0  0  0  0  0  0  0  0  0  0  0  0
   -5.2650    4.9440  -15.4330 N   0  0  0  0  0  0  0  0  0  0  0  0
   -4.4690    5.0640  -16.5400 C   0  0  0  0  0  0  0  0  0  0  0  0
   -5.2220    4.9170  -17.6860 C   0  0  0  0  0  0  0  0  0  0  0  0
   -4.6900    4.9420  -19.0850 C   0  0  0  0  0  0  0  0  0  0  0  0
   -3.4650    4.8550  -19.2750 O   0  0  0  0  0  0  0  0  0  0  0  0
   -5.5700    5.0240  -20.0800 N   0  0  0  0  0  0  0  0  0  0  0  0
   -8.9180    4.2650  -15.7570 C   0  0  0  0  0  0  0  0  0  0  0  0
   -7.7160    4.4970  -15.0720 C   0  0  0  0  0  0  0  0  0  0  0  0
   -7.6580    4.6350  -13.5770 C   0  0  0  0  0  0  0  0  0  0  0  0
   -6.7410    5.2620  -13.0540 O   0  0  0  0  0  0  0  0  0  0  0  0
   -8.6110    4.0030  -12.8440 N   0  0  0  0  0  0  0  0  0  0  0  0
   -8.6630    3.9960  -11.4170 C   0  0  0  0  0  0  0  0  0  0  0  0
   -8.8690    2.8140  -10.7130 C   0  0  0  0  0  0  0  0  0  0  0  0
   -8.9170    2.8240   -9.3190 C   0  0  0  0  0  0  0  0  0  0  0  0
   -9.2150    1.7010   -8.3700 C   0  0  0  0  0  0  0  0  0  0  0  0
   -8.8920    2.3070   -7.0700 N   0  0  0  0  0  0  0  0  0  0  0  0
   -8.8290    3.7770   -7.1440 C   0  0  0  0  0  0  0  0  0  0  0  0
   -8.7300    4.0110   -8.6230 C   0  0  0  0  0  0  0  0  0  0  0  0
   -8.5050    5.1920   -9.3250 C   0  0  0  0  0  0  0  0  0  0  0  0
   -8.4840    5.1900  -10.7130 C   0  0  0  0  0  0  0  0  0  0  0  0
  2  1  1  0
  3  2  2  0
  4  3  1  0
  5  4  2  0
  6  5  1  0
  7  6  1  0
  8  4  1  0
  8  7  2  0
  9  8  1  0
 10  9  2  0
 11  9  1  0
 12  2  1  0
 13 12  2  0
 13  5  1  0
 14 13  1  0
 15 14  2  0
 16 14  1  0
 17 16  1  0
 18 17  2  0
 19 18  1  0
 20 19  1  0
 21 20  1  0
 22 21  1  0
 23 22  1  0
 23 19  2  0
 24 23  1  0
 25 17  1  0
 25 24  2  0
M  END
>  <smiles>  (227) 
NC(=O)c1c[nH]c2c(C(=O)Nc3ccc4c(c3)CNC4)cc(Cl)cc12

>  <inchikey>  (227) 
QHZKGQUQPZZGMJ-UHFFFAOYSA-N

>  <alias>  (227) 
Z4070a

$$$$
Z4072a
     RDKit          3D

 28 31  0  0  0  0  0  0  0  0999 V2000
  -10.0150    4.1530  -17.9510 Cl  0  0  0  0  0  0  0  0  0  0  0  0
   -8.6130    4.5040  -16.9650 C   0  0  0  0  0  0  0  0  0  0  0  0
   -8.6490    4.2560  -15.5980 C   0  0  0  0  0  0  0  0  0  0  0  0
   -7.5040    5.0570  -17.5690 C   0  0  0  0  0  0  0  0  0  0  0  0
   -6.4120    5.4270  -16.7930 C   0  0  0  0  0  0  0  0  0  0  0  0
   -5.2790    6.2280  -17.3970 C   0  0  2  0  0  0  0  0  0  0  0  0
   -5.1890    6.4260  -18.8810 C   0  0  0  0  0  0  0  0  0  0  0  0
   -4.1940    5.5720  -18.2000 C   0  0  0  0  0  0  0  0  0  0  0  0
   -6.4400    5.1540  -15.4330 C   0  0  0  0  0  0  0  0  0  0  0  0
   -7.5340    4.5660  -14.8170 C   0  0  0  0  0  0  0  0  0  0  0  0
   -7.4450    4.2530  -13.3290 C   0  0  2  0  0  0  0  0  0  0  0  0
   -6.7690    2.8590  -13.1300 C   0  0  0  0  0  0  0  0  0  0  0  0
   -5.6290    2.9040  -12.4390 N   0  0  0  0  0  0  0  0  0  0  0  0
   -4.5770    1.9080  -12.5460 C   0  0  0  0  0  0  0  0  0  0  0  0
   -3.5450    2.2930  -13.6820 C   0  0  2  0  0  0  0  0  0  0  0  0
   -3.0560    3.5350  -13.4250 F   0  0  0  0  0  0  0  0  0  0  0  0
   -4.2350    2.4090  -14.8440 F   0  0  0  0  0  0  0  0  0  0  0  0
   -7.2440    1.8220  -13.5880 O   0  0  0  0  0  0  0  0  0  0  0  0
   -8.5670    4.4640  -12.4440 N   0  0  0  0  0  0  0  0  0  0  0  0
   -8.4030    4.4210  -11.0730 C   0  0  0  0  0  0  0  0  0  0  0  0
   -8.6800    3.2410  -10.5070 N   0  0  0  0  0  0  0  0  0  0  0  0
   -8.7220    3.1930   -9.1690 C   0  0  0  0  0  0  0  0  0  0  0  0
   -9.0200    2.0260   -8.2890 C   0  0  0  0  0  0  0  0  0  0  0  0
   -8.8070    2.4960   -6.9210 N   0  0  0  0  0  0  0  0  0  0  0  0
   -8.6240    3.9400   -6.8760 C   0  0  0  0  0  0  0  0  0  0  0  0
   -8.4860    4.2860   -8.3300 C   0  0  0  0  0  0  0  0  0  0  0  0
   -8.1760    5.4950   -8.9420 C   0  0  0  0  0  0  0  0  0  0  0  0
   -8.1180    5.5760  -10.3260 C   0  0  0  0  0  0  0  0  0  0  0  0
  2  1  1  0
  3  2  2  0
  4  2  1  0
  5  4  2  0
  6  5  1  6
  7  6  1  0
  8  7  1  0
  8  6  1  0
  9  5  1  0
 10  9  2  0
 10  3  1  0
 11 10  1  0
 12 11  1  0
 13 12  1  0
 14 13  1  0
 15 14  1  0
 15 16  1  1
 17 15  1  0
 18 12  2  0
 11 19  1  6
 20 19  1  0
 21 20  2  0
 22 21  1  0
 23 22  1  0
 24 23  1  0
 25 24  1  0
 26 25  1  0
 26 22  2  0
 27 26  1  0
 28 20  1  0
 28 27  2  0
M  END
>  <smiles>  (228) 
O=C(NCC(F)F)[C@H](Nc1ccc2c(n1)CNC2)c1cc(Cl)cc(C2CC2)c1

>  <inchikey>  (228) 
CBEKEHTUDBYXIO-LJQANCHMSA-N

>  <alias>  (228) 
Z4072a

$$$$
Z4089a
     RDKit          3D

 26 30  0  0  0  0  0  0  0  0999 V2000
  -10.1890    3.7320  -17.7280 F   0  0  0  0  0  0  0  0  0  0  0  0
   -8.9890    4.0690  -17.1760 C   0  0  0  0  0  0  0  0  0  0  0  0
   -8.8840    4.1310  -15.8000 C   0  0  0  0  0  0  0  0  0  0  0  0
   -7.9550    4.3500  -18.0330 C   0  0  0  0  0  0  0  0  0  0  0  0
   -6.7270    4.7270  -17.4780 C   0  0  0  0  0  0  0  0  0  0  0  0
   -6.5660    4.8140  -16.0800 C   0  0  0  0  0  0  0  0  0  0  0  0
   -5.1870    5.1690  -15.8990 C   0  0  0  0  0  0  0  0  0  0  0  0
   -4.6660    5.2520  -17.1310 N   0  0  0  0  0  0  0  0  0  0  0  0
   -3.2490    5.5430  -17.4550 C   0  0  2  0  0  0  0  0  0  0  0  0
   -3.0480    6.7560  -18.3860 C   0  0  0  0  0  0  0  0  0  0  0  0
   -2.8880    5.8270  -19.5280 N   0  0  0  0  0  0  0  0  0  0  0  0
   -2.7020    4.6790  -18.6100 C   0  0  0  0  0  0  0  0  0  0  0  0
   -5.5570    5.0030  -18.1410 N   0  0  0  0  0  0  0  0  0  0  0  0
   -7.6590    4.5160  -15.2390 C   0  0  0  0  0  0  0  0  0  0  0  0
   -7.5110    4.6800  -13.7450 C   0  0  0  0  0  0  0  0  0  0  0  0
   -6.6270    5.4010  -13.2940 O   0  0  0  0  0  0  0  0  0  0  0  0
   -8.3690    3.9880  -12.9400 N   0  0  0  0  0  0  0  0  0  0  0  0
   -8.4060    3.9910  -11.5080 C   0  0  0  0  0  0  0  0  0  0  0  0
   -8.6500    2.8050  -10.8180 C   0  0  0  0  0  0  0  0  0  0  0  0
   -8.7320    2.8020   -9.4260 C   0  0  0  0  0  0  0  0  0  0  0  0
   -9.0570    1.6720   -8.4940 C   0  0  0  0  0  0  0  0  0  0  0  0
   -8.7080    2.2470   -7.1860 N   0  0  0  0  0  0  0  0  0  0  0  0
   -8.6600    3.7200   -7.2390 C   0  0  0  0  0  0  0  0  0  0  0  0
   -8.5500    3.9770   -8.7140 C   0  0  0  0  0  0  0  0  0  0  0  0
   -8.2920    5.1610   -9.3990 C   0  0  0  0  0  0  0  0  0  0  0  0
   -8.2260    5.1720  -10.7860 C   0  0  0  0  0  0  0  0  0  0  0  0
  2  1  1  0
  3  2  1  0
  4  2  2  0
  5  4  1  0
  6  5  1  0
  7  6  2  0
  8  7  1  0
  9  8  1  6
 10  9  1  0
 11 10  1  0
 12 11  1  0
 12  9  1  0
 13  5  2  0
 13  8  1  0
 14  6  1  0
 14  3  2  0
 15 14  1  0
 16 15  2  0
 17 15  1  0
 18 17  1  0
 19 18  2  0
 20 19  1  0
 21 20  1  0
 22 21  1  0
 23 22  1  0
 24 23  1  0
 24 20  2  0
 25 24  1  0
 26 18  1  0
 26 25  2  0
M  END
>  <smiles>  (229) 
O=C(Nc1ccc2c(c1)CNC2)c1cc(F)cc2nn(C3CNC3)cc12

>  <inchikey>  (229) 
HFVHDAPDXQBUQM-UHFFFAOYSA-N

>  <alias>  (229) 
Z4089a

$$$$
Z4090a
     RDKit          3D

 26 30  0  0  0  0  0  0  0  0999 V2000
  -10.3890    3.8430  -18.1820 Br  0  0  0  0  0  0  0  0  0  0  0  0
   -8.7750    4.2110  -17.2360 C   0  0  0  0  0  0  0  0  0  0  0  0
   -8.7760    4.2280  -15.8400 C   0  0  0  0  0  0  0  0  0  0  0  0
   -7.6360    4.4650  -17.9650 C   0  0  0  0  0  0  0  0  0  0  0  0
   -6.4620    4.7320  -17.2820 C   0  0  0  0  0  0  0  0  0  0  0  0
   -5.1990    4.9800  -17.7340 N   0  0  0  0  0  0  0  0  0  0  0  0
   -4.7650    5.0540  -19.1340 C   0  0  1  0  0  0  0  0  0  0  0  0
   -4.6880    6.4370  -19.8090 C   0  0  0  0  0  0  0  0  0  0  0  0
   -3.4620    5.9500  -20.4890 N   0  0  0  0  0  0  0  0  0  0  0  0
   -3.2570    4.9220  -19.4390 C   0  0  0  0  0  0  0  0  0  0  0  0
   -4.3260    5.1700  -16.6990 N   0  0  0  0  0  0  0  0  0  0  0  0
   -5.0370    5.0540  -15.5920 C   0  0  0  0  0  0  0  0  0  0  0  0
   -6.3970    4.7690  -15.8750 C   0  0  0  0  0  0  0  0  0  0  0  0
   -7.5840    4.5180  -15.1480 C   0  0  0  0  0  0  0  0  0  0  0  0
   -7.5500    4.6540  -13.6400 C   0  0  0  0  0  0  0  0  0  0  0  0
   -6.6740    5.3310  -13.1030 O   0  0  0  0  0  0  0  0  0  0  0  0
   -8.4760    3.9770  -12.9060 N   0  0  0  0  0  0  0  0  0  0  0  0
   -8.5630    3.9690  -11.4700 C   0  0  0  0  0  0  0  0  0  0  0  0
   -8.7460    2.7700  -10.7800 C   0  0  0  0  0  0  0  0  0  0  0  0
   -8.8050    2.7610   -9.3840 C   0  0  0  0  0  0  0  0  0  0  0  0
   -9.0780    1.6160   -8.4530 C   0  0  0  0  0  0  0  0  0  0  0  0
   -8.7920    2.2050   -7.1280 N   0  0  0  0  0  0  0  0  0  0  0  0
   -8.7680    3.6880   -7.1950 C   0  0  0  0  0  0  0  0  0  0  0  0
   -8.6700    3.9450   -8.6710 C   0  0  0  0  0  0  0  0  0  0  0  0
   -8.4980    5.1470   -9.3570 C   0  0  0  0  0  0  0  0  0  0  0  0
   -8.4500    5.1610  -10.7460 C   0  0  0  0  0  0  0  0  0  0  0  0
  2  1  1  0
  3  2  2  0
  4  2  1  0
  5  4  2  0
  6  5  1  0
  7  6  1  1
  8  7  1  0
  9  8  1  0
 10  7  1  0
 10  9  1  0
 11  6  1  0
 12 11  2  0
 13  5  1  0
 13 12  1  0
 14 13  2  0
 14  3  1  0
 15 14  1  0
 16 15  2  0
 17 15  1  0
 18 17  1  0
 19 18  2  0
 20 19  1  0
 21 20  1  0
 22 21  1  0
 23 22  1  0
 24 23  1  0
 24 20  2  0
 25 24  1  0
 26 18  1  0
 26 25  2  0
M  END
>  <smiles>  (230) 
O=C(Nc1ccc2c(c1)CNC2)c1cc(Br)cc2c1cnn2C1CNC1

>  <inchikey>  (230) 
CECIZVCESCNDJS-UHFFFAOYSA-N

>  <alias>  (230) 
Z4090a

$$$$
Z4094a
     RDKit          3D

 29 32  0  0  0  0  0  0  0  0999 V2000
  -10.3870    3.9850  -18.2100 Cl  0  0  0  0  0  0  0  0  0  0  0  0
   -8.9960    4.2520  -17.2020 C   0  0  0  0  0  0  0  0  0  0  0  0
   -9.0820    3.9810  -15.8500 C   0  0  0  0  0  0  0  0  0  0  0  0
   -7.8470    4.7620  -17.7680 C   0  0  0  0  0  0  0  0  0  0  0  0
   -6.7470    5.0310  -16.9640 C   0  0  0  0  0  0  0  0  0  0  0  0
   -5.5150    5.6950  -17.5330 C   0  0  1  0  0  0  0  0  0  0  0  0
   -4.3200    4.8830  -17.9420 C   0  0  0  0  0  0  0  0  0  0  0  0
   -5.1410    5.5460  -18.9810 C   0  0  0  0  0  0  0  0  0  0  0  0
   -6.8280    4.7290  -15.6070 C   0  0  0  0  0  0  0  0  0  0  0  0
   -7.9840    4.2140  -15.0310 C   0  0  0  0  0  0  0  0  0  0  0  0
   -7.9920    3.7690  -13.5710 C   0  0  1  0  0  0  0  0  0  0  0  0
   -6.8990    2.7200  -13.2970 C   0  0  0  0  0  0  0  0  0  0  0  0
   -5.8010    3.1680  -12.6810 N   0  0  0  0  0  0  0  0  0  0  0  0
   -4.6670    2.3000  -12.3950 C   0  0  0  0  0  0  0  0  0  0  0  0
   -3.6230    2.3120  -13.5990 C   0  0  2  0  0  0  0  0  0  0  0  0
   -2.9040    3.4630  -13.5290 F   0  0  0  0  0  0  0  0  0  0  0  0
   -4.2640    2.3580  -14.7970 F   0  0  0  0  0  0  0  0  0  0  0  0
   -7.0210    1.5720  -13.7080 O   0  0  0  0  0  0  0  0  0  0  0  0
   -7.9390    4.9070  -12.5990 N   0  0  0  0  0  0  0  0  0  0  0  0
   -7.9890    6.2630  -13.1380 C   0  0  0  0  0  0  0  0  0  0  0  0
   -8.1650    4.7240  -11.2110 C   0  0  0  0  0  0  0  0  0  0  0  0
   -8.4930    3.4610  -10.6870 C   0  0  0  0  0  0  0  0  0  0  0  0
   -8.6540    3.2790   -9.3150 C   0  0  0  0  0  0  0  0  0  0  0  0
   -9.0030    2.0320   -8.5570 C   0  0  0  0  0  0  0  0  0  0  0  0
   -8.8180    2.4570   -7.1700 N   0  0  0  0  0  0  0  0  0  0  0  0
   -8.7200    3.9130   -7.0270 C   0  0  0  0  0  0  0  0  0  0  0  0
   -8.5030    4.3490   -8.4450 C   0  0  0  0  0  0  0  0  0  0  0  0
   -8.2030    5.6070   -8.9520 C   0  0  0  0  0  0  0  0  0  0  0  0
   -8.0330    5.7970  -10.3120 C   0  0  0  0  0  0  0  0  0  0  0  0
  2  1  1  0
  3  2  2  0
  4  2  1  0
  5  4  2  0
  6  5  1  6
  7  6  1  0
  8  6  1  0
  8  7  1  0
  9  5  1  0
 10  9  2  0
 10  3  1  0
 11 10  1  0
 12 11  1  0
 13 12  1  0
 14 13  1  0
 15 14  1  0
 15 16  1  1
 17 15  1  0
 18 12  2  0
 11 19  1  1
 20 19  1  0
 21 19  1  0
 22 21  2  0
 23 22  1  0
 24 23  1  0
 25 24  1  0
 26 25  1  0
 27 26  1  0
 27 23  2  0
 28 27  1  0
 29 21  1  0
 29 28  2  0
M  END
>  <smiles>  (231) 
CN(c1ccc2c(c1)CNC2)[C@H](C(=O)NCC(F)F)c1cc(Cl)cc(C2CC2)c1

>  <inchikey>  (231) 
BECUWTOZXMPTLN-NRFANRHFSA-N

>  <alias>  (231) 
Z4094a

$$$$
Z4103a
     RDKit          3D

 26 30  0  0  0  0  0  0  0  0999 V2000
  -10.4020    4.0060  -17.9890 Cl  0  0  0  0  0  0  0  0  0  0  0  0
   -8.8750    4.2770  -17.1900 C   0  0  0  0  0  0  0  0  0  0  0  0
   -8.8270    4.2840  -15.8020 C   0  0  0  0  0  0  0  0  0  0  0  0
   -7.7540    4.4970  -17.9640 C   0  0  0  0  0  0  0  0  0  0  0  0
   -6.5530    4.7400  -17.3150 C   0  0  0  0  0  0  0  0  0  0  0  0
   -5.3020    4.9840  -17.8000 N   0  0  0  0  0  0  0  0  0  0  0  0
   -4.9010    5.0770  -19.2070 C   0  0  1  0  0  0  0  0  0  0  0  0
   -4.7560    6.4860  -19.8140 C   0  0  0  0  0  0  0  0  0  0  0  0
   -3.5640    5.9690  -20.5290 N   0  0  0  0  0  0  0  0  0  0  0  0
   -3.4280    4.8280  -19.5920 C   0  0  0  0  0  0  0  0  0  0  0  0
   -4.4000    5.1610  -16.7870 N   0  0  0  0  0  0  0  0  0  0  0  0
   -5.0800    5.0390  -15.6640 C   0  0  0  0  0  0  0  0  0  0  0  0
   -6.4500    4.7670  -15.9120 C   0  0  0  0  0  0  0  0  0  0  0  0
   -7.6130    4.5370  -15.1490 C   0  0  0  0  0  0  0  0  0  0  0  0
   -7.5420    4.6860  -13.6470 C   0  0  0  0  0  0  0  0  0  0  0  0
   -6.7140    5.4440  -13.1410 O   0  0  0  0  0  0  0  0  0  0  0  0
   -8.4110    3.9560  -12.8910 N   0  0  0  0  0  0  0  0  0  0  0  0
   -8.5120    3.9750  -11.4630 C   0  0  0  0  0  0  0  0  0  0  0  0
   -8.7220    2.7930  -10.7560 C   0  0  0  0  0  0  0  0  0  0  0  0
   -8.8450    2.8150   -9.3660 C   0  0  0  0  0  0  0  0  0  0  0  0
   -9.1340    1.6880   -8.4210 C   0  0  0  0  0  0  0  0  0  0  0  0
   -8.8410    2.3010   -7.1260 N   0  0  0  0  0  0  0  0  0  0  0  0
   -8.8720    3.7810   -7.1970 C   0  0  0  0  0  0  0  0  0  0  0  0
   -8.7260    4.0120   -8.6730 C   0  0  0  0  0  0  0  0  0  0  0  0
   -8.5000    5.1920   -9.3740 C   0  0  0  0  0  0  0  0  0  0  0  0
   -8.4040    5.1790  -10.7590 C   0  0  0  0  0  0  0  0  0  0  0  0
  2  1  1  0
  3  2  2  0
  4  2  1  0
  5  4  2  0
  6  5  1  0
  7  6  1  1
  8  7  1  0
  9  8  1  0
 10  7  1  0
 10  9  1  0
 11  6  1  0
 12 11  2  0
 13  5  1  0
 13 12  1  0
 14 13  2  0
 14  3  1  0
 15 14  1  0
 16 15  2  0
 17 15  1  0
 18 17  1  0
 19 18  2  0
 20 19  1  0
 21 20  1  0
 22 21  1  0
 23 22  1  0
 24 23  1  0
 24 20  2  0
 25 24  1  0
 26 18  1  0
 26 25  2  0
M  END
>  <smiles>  (232) 
O=C(Nc1ccc2c(c1)CNC2)c1cc(Cl)cc2c1cnn2C1CNC1

>  <inchikey>  (232) 
BOZVCOAXVOVAGF-UHFFFAOYSA-N

>  <alias>  (232) 
Z4103a

$$$$
Z4104a
     RDKit          3D

 28 31  0  0  0  0  0  0  0  0999 V2000
   -9.9590    4.1510  -18.0700 Cl  0  0  0  0  0  0  0  0  0  0  0  0
   -8.6330    4.6390  -17.0210 C   0  0  0  0  0  0  0  0  0  0  0  0
   -8.6580    4.3090  -15.6640 C   0  0  0  0  0  0  0  0  0  0  0  0
   -7.5770    5.3310  -17.5730 C   0  0  0  0  0  0  0  0  0  0  0  0
   -6.5170    5.7250  -16.7680 C   0  0  0  0  0  0  0  0  0  0  0  0
   -5.2600    6.2980  -17.3790 C   0  0  1  0  0  0  0  0  0  0  0  0
   -4.1300    5.4010  -17.8030 C   0  0  0  0  0  0  0  0  0  0  0  0
   -4.9450    6.0880  -18.8330 C   0  0  0  0  0  0  0  0  0  0  0  0
   -6.5680    5.4350  -15.4110 C   0  0  0  0  0  0  0  0  0  0  0  0
   -7.5990    4.7060  -14.8410 C   0  0  0  0  0  0  0  0  0  0  0  0
   -7.4590    4.2880  -13.3770 C   0  0  2  0  0  0  0  0  0  0  0  0
   -6.9060    2.8290  -13.2560 C   0  0  0  0  0  0  0  0  0  0  0  0
   -5.8140    2.7030  -12.5010 N   0  0  0  0  0  0  0  0  0  0  0  0
   -4.7610    3.7000  -12.4390 C   0  0  0  0  0  0  0  0  0  0  0  0
   -3.4920    3.2260  -13.1280 C   0  0  0  0  0  0  0  0  0  0  0  0
   -3.6660    3.0250  -14.6030 C   0  0  0  0  0  0  0  0  0  0  0  0
   -3.2420    1.7490  -14.9530 F   0  0  0  0  0  0  0  0  0  0  0  0
   -7.4450    1.8720  -13.7920 O   0  0  0  0  0  0  0  0  0  0  0  0
   -8.5230    4.5350  -12.4270 N   0  0  0  0  0  0  0  0  0  0  0  0
   -8.3640    4.4590  -11.0290 C   0  0  0  0  0  0  0  0  0  0  0  0
   -8.5750    3.2350  -10.3980 C   0  0  0  0  0  0  0  0  0  0  0  0
   -8.7340    3.1730   -9.0170 C   0  0  0  0  0  0  0  0  0  0  0  0
   -8.9630    1.9770   -8.1410 C   0  0  0  0  0  0  0  0  0  0  0  0
   -8.8160    2.5450   -6.7930 N   0  0  0  0  0  0  0  0  0  0  0  0
   -8.8860    4.0170   -6.8020 C   0  0  0  0  0  0  0  0  0  0  0  0
   -8.6640    4.3300   -8.2540 C   0  0  0  0  0  0  0  0  0  0  0  0
   -8.4030    5.5480   -8.8770 C   0  0  0  0  0  0  0  0  0  0  0  0
   -8.2380    5.6110  -10.2530 C   0  0  0  0  0  0  0  0  0  0  0  0
  2  1  1  0
  3  2  2  0
  4  2  1  0
  5  4  2  0
  6  5  1  6
  7  6  1  0
  8  7  1  0
  8  6  1  0
  9  5  1  0
 10  9  2  0
 10  3  1  0
 11 10  1  0
 12 11  1  0
 13 12  1  0
 14 13  1  0
 15 14  1  0
 16 15  1  0
 17 16  1  0
 18 12  2  0
 11 19  1  6
 20 19  1  0
 21 20  2  0
 22 21  1  0
 23 22  1  0
 24 23  1  0
 25 24  1  0
 26 25  1  0
 26 22  2  0
 27 26  1  0
 28 20  1  0
 28 27  2  0
M  END
>  <smiles>  (233) 
O=C(NCCCF)[C@H](Nc1ccc2c(c1)CNC2)c1cc(Cl)cc(C2CC2)c1

>  <inchikey>  (233) 
PRKQRQUDBSFLCZ-OAQYLSRUSA-N

>  <alias>  (233) 
Z4104a

$$$$
Z4114a
     RDKit          3D

 28 31  0  0  0  0  0  0  0  0999 V2000
  -10.3830    3.9650  -18.1130 Cl  0  0  0  0  0  0  0  0  0  0  0  0
   -8.9140    4.3270  -17.2410 C   0  0  0  0  0  0  0  0  0  0  0  0
   -8.8950    4.2150  -15.8580 C   0  0  0  0  0  0  0  0  0  0  0  0
   -7.8150    4.7590  -17.9480 C   0  0  0  0  0  0  0  0  0  0  0  0
   -6.6610    5.1290  -17.2690 C   0  0  0  0  0  0  0  0  0  0  0  0
   -5.4880    5.7110  -18.0310 C   0  0  2  0  0  0  0  0  0  0  0  0
   -4.1370    5.0530  -18.0170 C   0  0  0  0  0  0  0  0  0  0  0  0
   -4.3290    6.3410  -17.3130 C   0  0  0  0  0  0  0  0  0  0  0  0
   -6.6410    5.0140  -15.8820 C   0  0  0  0  0  0  0  0  0  0  0  0
   -7.7360    4.5480  -15.1600 C   0  0  0  0  0  0  0  0  0  0  0  0
   -7.6160    4.3420  -13.6540 C   0  0  2  0  0  0  0  0  0  0  0  0
   -6.7100    3.1540  -13.4010 C   0  0  0  0  0  0  0  0  0  0  0  0
   -5.5640    3.4560  -12.8040 N   0  0  0  0  0  0  0  0  0  0  0  0
   -4.5200    2.4710  -12.5720 C   0  0  0  0  0  0  0  0  0  0  0  0
   -3.1490    3.0830  -12.7460 C   0  0  0  0  0  0  0  0  0  0  0  0
   -2.3510    2.3940  -13.8080 C   0  0  0  0  0  0  0  0  0  0  0  0
   -3.1000    2.3240  -14.9830 F   0  0  0  0  0  0  0  0  0  0  0  0
   -7.0380    2.0070  -13.6980 O   0  0  0  0  0  0  0  0  0  0  0  0
   -8.7970    4.1350  -12.8380 N   0  0  0  0  0  0  0  0  0  0  0  0
   -8.6870    4.1300  -11.4360 C   0  0  0  0  0  0  0  0  0  0  0  0
   -8.9790    2.9760  -10.7100 C   0  0  0  0  0  0  0  0  0  0  0  0
   -8.9290    2.9880   -9.3160 C   0  0  0  0  0  0  0  0  0  0  0  0
   -9.1890    1.8770   -8.3430 C   0  0  0  0  0  0  0  0  0  0  0  0
   -8.8310    2.4840   -7.0440 N   0  0  0  0  0  0  0  0  0  0  0  0
   -8.6820    3.9490   -7.1580 C   0  0  0  0  0  0  0  0  0  0  0  0
   -8.6000    4.1550   -8.6420 C   0  0  0  0  0  0  0  0  0  0  0  0
   -8.2850    5.3000   -9.3690 C   0  0  0  0  0  0  0  0  0  0  0  0
   -8.3150    5.2880  -10.7550 C   0  0  0  0  0  0  0  0  0  0  0  0
  2  1  1  0
  3  2  2  0
  4  2  1  0
  5  4  2  0
  6  5  1  1
  7  6  1  0
  8  6  1  0
  8  7  1  0
  9  5  1  0
 10  9  2  0
 10  3  1  0
 11 10  1  0
 12 11  1  0
 13 12  1  0
 14 13  1  0
 15 14  1  0
 16 15  1  0
 17 16  1  0
 18 12  2  0
 11 19  1  6
 20 19  1  0
 21 20  2  0
 22 21  1  0
 23 22  1  0
 24 23  1  0
 25 24  1  0
 26 25  1  0
 26 22  2  0
 27 26  1  0
 28 20  1  0
 28 27  2  0
M  END
>  <smiles>  (234) 
O=C(NCCCF)[C@H](Nc1ccc2c(c1)CNC2)c1cc(Cl)cc(C2CC2)c1

>  <inchikey>  (234) 
PRKQRQUDBSFLCZ-OAQYLSRUSA-N

>  <alias>  (234) 
Z4114a

$$$$
Z4117a
     RDKit          3D

 28 32  0  0  0  0  0  0  0  0999 V2000
   -6.3960    5.3580  -12.8290 O   0  0  0  0  0  0  0  0  0  0  0  0
   -7.2690    4.6810  -13.3700 C   0  0  0  0  0  0  0  0  0  0  0  0
   -7.3360    4.5690  -14.8620 C   0  0  0  0  0  0  0  0  0  0  0  0
   -8.5190    4.1110  -15.4520 C   0  0  0  0  0  0  0  0  0  0  0  0
   -8.6570    4.0460  -16.8260 C   0  0  0  0  0  0  0  0  0  0  0  0
   -6.2640    4.9680  -15.6640 C   0  0  0  0  0  0  0  0  0  0  0  0
   -6.3820    4.9110  -17.0580 C   0  0  0  0  0  0  0  0  0  0  0  0
   -7.5850    4.4410  -17.6150 C   0  0  0  0  0  0  0  0  0  0  0  0
   -7.4380    4.4400  -18.9790 N   0  0  0  0  0  0  0  0  0  0  0  0
   -6.1950    4.9050  -19.2920 C   0  0  0  0  0  0  0  0  0  0  0  0
   -5.5010    5.2110  -18.1580 C   0  0  0  0  0  0  0  0  0  0  0  0
   -4.1020    5.7600  -18.1030 C   0  0  2  0  0  0  0  0  0  0  0  0
   -3.0510    4.8430  -17.4950 C   0  0  0  0  0  0  0  0  0  0  0  0
   -1.6830    5.4120  -17.8890 C   0  0  0  0  0  0  0  0  0  0  0  0
   -3.9510    7.1740  -17.5470 C   0  0  0  0  0  0  0  0  0  0  0  0
   -2.5450    7.6600  -17.9280 C   0  0  0  0  0  0  0  0  0  0  0  0
   -1.5070    6.7770  -17.3820 N   0  0  0  0  0  0  0  0  0  0  0  0
   -0.1700    7.2820  -17.7160 C   0  0  0  0  0  0  0  0  0  0  0  0
   -8.2330    4.0100  -12.6740 N   0  0  0  0  0  0  0  0  0  0  0  0
   -8.4020    3.9600  -11.2610 C   0  0  0  0  0  0  0  0  0  0  0  0
   -8.6280    2.7520  -10.6000 C   0  0  0  0  0  0  0  0  0  0  0  0
   -8.7400    2.7260   -9.2070 C   0  0  0  0  0  0  0  0  0  0  0  0
   -9.0270    1.5700   -8.2950 C   0  0  0  0  0  0  0  0  0  0  0  0
   -8.6740    2.1390   -6.9810 N   0  0  0  0  0  0  0  0  0  0  0  0
   -8.6950    3.6150   -7.0020 C   0  0  0  0  0  0  0  0  0  0  0  0
   -8.6110    3.9000   -8.4730 C   0  0  0  0  0  0  0  0  0  0  0  0
   -8.4040    5.1040   -9.1360 C   0  0  0  0  0  0  0  0  0  0  0  0
   -8.3060    5.1380  -10.5190 C   0  0  0  0  0  0  0  0  0  0  0  0
  2  1  2  0
  3  2  1  0
  4  3  2  0
  5  4  1  0
  6  3  1  0
  7  6  2  0
  8  7  1  0
  8  5  2  0
  9  8  1  0
 10  9  1  0
 11 10  2  0
 11  7  1  0
 12 11  1  1
 13 12  1  0
 14 13  1  0
 15 12  1  0
 16 15  1  0
 17 14  1  0
 17 16  1  0
 18 17  1  0
 19  2  1  0
 20 19  1  0
 21 20  2  0
 22 21  1  0
 23 22  1  0
 24 23  1  0
 25 24  1  0
 26 25  1  0
 26 22  2  0
 27 26  1  0
 28 20  1  0
 28 27  2  0
M  END
>  <smiles>  (235) 
CN1CCC(c2c[nH]c3ccc(C(=O)Nc4ccc5c(c4)CNC5)cc23)CC1

>  <inchikey>  (235) 
BMPCWLUQIXTEFX-UHFFFAOYSA-N

>  <alias>  (235) 
Z4117a

$$$$
Z4118a
     RDKit          3D

 29 32  0  0  0  0  0  0  0  0999 V2000
  -10.4060    4.0870  -18.1000 Cl  0  0  0  0  0  0  0  0  0  0  0  0
   -8.9910    4.3020  -17.1050 C   0  0  0  0  0  0  0  0  0  0  0  0
   -9.0870    4.0840  -15.7440 C   0  0  0  0  0  0  0  0  0  0  0  0
   -7.8010    4.6660  -17.6970 C   0  0  0  0  0  0  0  0  0  0  0  0
   -6.6610    4.8100  -16.9180 C   0  0  0  0  0  0  0  0  0  0  0  0
   -5.3320    5.1660  -17.5490 C   0  0  2  0  0  0  0  0  0  0  0  0
   -4.7510    6.5470  -17.4100 C   0  0  0  0  0  0  0  0  0  0  0  0
   -5.2570    6.0970  -18.7310 C   0  0  0  0  0  0  0  0  0  0  0  0
   -6.7610    4.5840  -15.5470 C   0  0  0  0  0  0  0  0  0  0  0  0
   -7.9580    4.2180  -14.9460 C   0  0  0  0  0  0  0  0  0  0  0  0
   -7.9820    3.7800  -13.4860 C   0  0  1  0  0  0  0  0  0  0  0  0
   -6.8710    2.7540  -13.1980 C   0  0  0  0  0  0  0  0  0  0  0  0
   -5.8150    3.2190  -12.5390 N   0  0  0  0  0  0  0  0  0  0  0  0
   -4.5620    2.4900  -12.4790 C   0  0  0  0  0  0  0  0  0  0  0  0
   -3.8820    3.1140  -13.7270 C   0  0  2  0  0  0  0  0  0  0  0  0
   -3.8310    2.1790  -14.7070 F   0  0  0  0  0  0  0  0  0  0  0  0
   -2.5990    3.3740  -13.3940 F   0  0  0  0  0  0  0  0  0  0  0  0
   -6.9500    1.6080  -13.6250 O   0  0  0  0  0  0  0  0  0  0  0  0
   -7.9630    4.9260  -12.5200 N   0  0  0  0  0  0  0  0  0  0  0  0
   -7.9970    6.2870  -13.0410 C   0  0  0  0  0  0  0  0  0  0  0  0
   -8.2070    4.7250  -11.1250 C   0  0  0  0  0  0  0  0  0  0  0  0
   -8.5040    3.4500  -10.6140 C   0  0  0  0  0  0  0  0  0  0  0  0
   -8.6750    3.2510   -9.2410 C   0  0  0  0  0  0  0  0  0  0  0  0
   -8.9990    1.9870   -8.4970 C   0  0  0  0  0  0  0  0  0  0  0  0
   -8.8120    2.3880   -7.0880 N   0  0  0  0  0  0  0  0  0  0  0  0
   -8.7750    3.8540   -6.9460 C   0  0  0  0  0  0  0  0  0  0  0  0
   -8.5680    4.3180   -8.3570 C   0  0  0  0  0  0  0  0  0  0  0  0
   -8.2950    5.5890   -8.8480 C   0  0  0  0  0  0  0  0  0  0  0  0
   -8.1140    5.7970  -10.2080 C   0  0  0  0  0  0  0  0  0  0  0  0
  2  1  1  0
  3  2  2  0
  4  2  1  0
  5  4  2  0
  6  5  1  1
  7  6  1  0
  8  6  1  0
  8  7  1  0
  9  5  1  0
 10  9  2  0
 10  3  1  0
 11 10  1  0
 12 11  1  0
 13 12  1  0
 14 13  1  0
 15 14  1  0
 15 16  1  6
 17 15  1  0
 18 12  2  0
 11 19  1  1
 20 19  1  0
 21 19  1  0
 22 21  2  0
 23 22  1  0
 24 23  1  0
 25 24  1  0
 26 25  1  0
 27 26  1  0
 27 23  2  0
 28 27  1  0
 29 21  1  0
 29 28  2  0
M  END
>  <smiles>  (236) 
CN(c1ccc2c(c1)CNC2)[C@H](C(=O)NCC(F)F)c1cc(Cl)cc(C2CC2)c1

>  <inchikey>  (236) 
BECUWTOZXMPTLN-NRFANRHFSA-N

>  <alias>  (236) 
Z4118a

$$$$
Z4120a
     RDKit          3D

 24 26  0  0  0  0  0  0  0  0999 V2000
  -10.5520    3.9490  -18.0960 Cl  0  0  0  0  0  0  0  0  0  0  0  0
   -9.0660    4.3700  -17.2860 C   0  0  0  0  0  0  0  0  0  0  0  0
   -9.0500    4.4760  -15.8980 C   0  0  0  0  0  0  0  0  0  0  0  0
   -7.9460    4.6090  -18.0520 C   0  0  0  0  0  0  0  0  0  0  0  0
   -6.7630    4.9780  -17.4330 C   0  0  0  0  0  0  0  0  0  0  0  0
   -6.7370    5.1180  -16.0310 C   0  0  0  0  0  0  0  0  0  0  0  0
   -5.4650    5.4910  -15.6620 N   0  0  0  0  0  0  0  0  0  0  0  0
   -4.6850    5.5810  -16.7850 C   0  0  0  0  0  0  0  0  0  0  0  0
   -5.4270    5.2690  -17.9040 C   0  0  0  0  0  0  0  0  0  0  0  0
   -4.9470    5.2080  -19.2960 C   0  0  0  0  0  0  0  0  0  0  0  0
   -3.6110    5.2030  -19.4080 N   0  0  0  0  0  0  0  0  0  0  0  0
   -5.6710    5.1110  -20.3510 N   0  0  0  0  0  0  0  0  0  0  0  0
   -7.8740    4.8650  -15.2360 C   0  0  0  0  0  0  0  0  0  0  0  0
   -7.8120    5.0660  -13.7420 C   0  0  0  0  0  0  0  0  0  0  0  0
   -6.9980    5.8620  -13.2740 O   0  0  0  0  0  0  0  0  0  0  0  0
   -8.6520    4.3280  -12.9600 N   0  0  0  0  0  0  0  0  0  0  0  0
   -8.7350    4.3570  -11.5270 C   0  0  0  0  0  0  0  0  0  0  0  0
   -8.5400    5.5540  -10.8430 C   0  0  0  0  0  0  0  0  0  0  0  0
   -8.5540    5.5730   -9.4590 C   0  0  0  0  0  0  0  0  0  0  0  0
   -8.9600    3.1910  -10.7970 C   0  0  0  0  0  0  0  0  0  0  0  0
   -8.9740    3.1990   -9.4030 C   0  0  0  0  0  0  0  0  0  0  0  0
   -9.2060    1.9110   -8.6500 C   0  0  0  0  0  0  0  0  0  0  0  0
   -8.7650    4.4140   -8.7140 C   0  0  0  0  0  0  0  0  0  0  0  0
   -8.7730    4.4690   -7.2050 C   0  0  0  0  0  0  0  0  0  0  0  0
  2  1  1  0
  3  2  2  0
  4  2  1  0
  5  4  2  0
  6  5  1  0
  7  6  1  0
  8  7  1  0
  9  5  1  0
  9  8  2  0
 10  9  1  0
 11 10  2  0
 12 10  1  0
 13  6  2  0
 13  3  1  0
 14 13  1  0
 15 14  2  0
 16 14  1  0
 17 16  1  0
 18 17  2  0
 19 18  1  0
 20 17  1  0
 21 20  2  0
 22 21  1  0
 23 21  1  0
 23 19  2  0
 24 23  1  0
M  END
>  <smiles>  (237) 
Cc1ccc(NC(=O)c2cc(Cl)cc3c(C(=N)N)c[nH]c23)cc1C

>  <inchikey>  (237) 
RORDLYGUTLUOQW-UHFFFAOYSA-N

>  <alias>  (237) 
Z4120a

$$$$
Z4125a
     RDKit          3D

 23 26  0  0  0  0  0  0  0  0999 V2000
   -6.9090    5.6840  -13.1240 O   0  0  0  0  0  0  0  0  0  0  0  0
   -7.6910    4.8710  -13.6090 C   0  0  0  0  0  0  0  0  0  0  0  0
   -7.7080    4.6250  -15.0860 C   0  0  0  0  0  0  0  0  0  0  0  0
   -6.5670    5.0130  -15.7830 C   0  0  0  0  0  0  0  0  0  0  0  0
   -8.7750    4.0780  -15.7880 C   0  0  0  0  0  0  0  0  0  0  0  0
   -8.7150    3.9280  -17.1640 C   0  0  0  0  0  0  0  0  0  0  0  0
   -7.5630    4.3050  -17.8570 C   0  0  0  0  0  0  0  0  0  0  0  0
   -6.4770    4.8620  -17.1660 C   0  0  0  0  0  0  0  0  0  0  0  0
   -5.2110    5.2070  -17.9140 C   0  0  0  0  0  0  0  0  0  0  0  0
   -5.4300    5.3750  -19.4080 C   0  0  0  0  0  0  0  0  0  0  0  0
   -7.4270    4.0120  -19.2200 N   0  0  0  0  0  0  0  0  0  0  0  0
   -6.4120    4.4120  -20.0100 C   0  0  0  0  0  0  0  0  0  0  0  0
   -6.2900    3.9820  -21.1560 O   0  0  0  0  0  0  0  0  0  0  0  0
   -8.5200    4.1120  -12.8500 N   0  0  0  0  0  0  0  0  0  0  0  0
   -8.5880    4.1120  -11.4210 C   0  0  0  0  0  0  0  0  0  0  0  0
   -8.7800    2.9110  -10.7420 C   0  0  0  0  0  0  0  0  0  0  0  0
   -8.8340    2.8920   -9.3480 C   0  0  0  0  0  0  0  0  0  0  0  0
   -9.1350    1.7470   -8.4250 C   0  0  0  0  0  0  0  0  0  0  0  0
   -8.8170    2.3290   -7.1170 N   0  0  0  0  0  0  0  0  0  0  0  0
   -8.7400    3.7980   -7.1510 C   0  0  0  0  0  0  0  0  0  0  0  0
   -8.6720    4.0690   -8.6260 C   0  0  0  0  0  0  0  0  0  0  0  0
   -8.4860    5.2710   -9.3050 C   0  0  0  0  0  0  0  0  0  0  0  0
   -8.4440    5.2940  -10.6930 C   0  0  0  0  0  0  0  0  0  0  0  0
  2  1  2  0
  3  2  1  0
  4  3  2  0
  5  3  1  0
  6  5  2  0
  7  6  1  0
  8  7  2  0
  8  4  1  0
  9  8  1  0
 10  9  1  0
 11  7  1  0
 12 11  1  0
 12 10  1  0
 13 12  2  0
 14  2  1  0
 15 14  1  0
 16 15  2  0
 17 16  1  0
 18 17  1  0
 19 18  1  0
 20 19  1  0
 21 20  1  0
 21 17  2  0
 22 21  1  0
 23 15  1  0
 23 22  2  0
M  END
>  <smiles>  (238) 
O=C1CCc2cc(C(=O)Nc3ccc4c(c3)CNC4)ccc2N1

>  <inchikey>  (238) 
OSAPQEBBUCOREF-UHFFFAOYSA-N

>  <alias>  (238) 
Z4125a

$$$$
Z4131a
     RDKit          3D

 25 29  0  0  0  0  0  0  0  0999 V2000
   -6.9260    5.5900  -13.1730 O   0  0  0  0  0  0  0  0  0  0  0  0
   -7.7660    4.8280  -13.6470 C   0  0  0  0  0  0  0  0  0  0  0  0
   -7.8900    4.6670  -15.1410 C   0  0  0  0  0  0  0  0  0  0  0  0
   -6.8200    4.9860  -15.9980 C   0  0  0  0  0  0  0  0  0  0  0  0
   -5.4600    5.3550  -15.8360 C   0  0  0  0  0  0  0  0  0  0  0  0
   -4.8550    5.4920  -16.9970 N   0  0  0  0  0  0  0  0  0  0  0  0
   -5.7980    5.2330  -17.9530 N   0  0  0  0  0  0  0  0  0  0  0  0
   -5.4450    5.3500  -19.3710 C   0  0  2  0  0  0  0  0  0  0  0  0
   -3.9680    5.0990  -19.7470 C   0  0  0  0  0  0  0  0  0  0  0  0
   -4.0370    6.3000  -20.6120 N   0  0  0  0  0  0  0  0  0  0  0  0
   -5.2470    6.7840  -19.9040 C   0  0  0  0  0  0  0  0  0  0  0  0
   -7.0000    4.9100  -17.3940 C   0  0  0  0  0  0  0  0  0  0  0  0
   -8.2140    4.5180  -17.9470 C   0  0  0  0  0  0  0  0  0  0  0  0
   -9.2540    4.1850  -17.0900 C   0  0  0  0  0  0  0  0  0  0  0  0
   -9.0930    4.2560  -15.7120 C   0  0  0  0  0  0  0  0  0  0  0  0
   -8.6130    4.0940  -12.8700 N   0  0  0  0  0  0  0  0  0  0  0  0
   -8.6680    4.0890  -11.4420 C   0  0  0  0  0  0  0  0  0  0  0  0
   -8.8890    2.9020  -10.7440 C   0  0  0  0  0  0  0  0  0  0  0  0
   -8.9310    2.9010   -9.3530 C   0  0  0  0  0  0  0  0  0  0  0  0
   -9.1910    1.7630   -8.4100 C   0  0  0  0  0  0  0  0  0  0  0  0
   -8.8550    2.3600   -7.1110 N   0  0  0  0  0  0  0  0  0  0  0  0
   -8.8030    3.8320   -7.1700 C   0  0  0  0  0  0  0  0  0  0  0  0
   -8.7400    4.0820   -8.6480 C   0  0  0  0  0  0  0  0  0  0  0  0
   -8.5220    5.2680   -9.3420 C   0  0  0  0  0  0  0  0  0  0  0  0
   -8.4910    5.2740  -10.7280 C   0  0  0  0  0  0  0  0  0  0  0  0
  2  1  2  0
  3  2  1  0
  4  3  2  0
  5  4  1  0
  6  5  2  0
  7  6  1  0
  8  7  1  1
  9  8  1  0
 10  9  1  0
 11  8  1  0
 11 10  1  0
 12  7  1  0
 12  4  1  0
 13 12  2  0
 14 13  1  0
 15 14  2  0
 15  3  1  0
 16  2  1  0
 17 16  1  0
 18 17  2  0
 19 18  1  0
 20 19  1  0
 21 20  1  0
 22 21  1  0
 23 22  1  0
 23 19  2  0
 24 23  1  0
 25 17  1  0
 25 24  2  0
M  END
>  <smiles>  (239) 
O=C(Nc1ccc2c(c1)CNC2)c1cccc2c1cnn2C1CNC1

>  <inchikey>  (239) 
HCZHBOYUPINFQC-UHFFFAOYSA-N

>  <alias>  (239) 
Z4131a

$$$$
Z4132a
     RDKit          3D

 25 28  0  0  0  0  0  0  0  0999 V2000
  -10.2320    3.8110  -17.9570 Cl  0  0  0  0  0  0  0  0  0  0  0  0
   -8.7550    4.3170  -17.1840 C   0  0  0  0  0  0  0  0  0  0  0  0
   -8.6590    4.2590  -15.8000 C   0  0  0  0  0  0  0  0  0  0  0  0
   -7.7160    4.7620  -17.9710 C   0  0  0  0  0  0  0  0  0  0  0  0
   -6.5530    5.1670  -17.3400 C   0  0  0  0  0  0  0  0  0  0  0  0
   -6.4070    5.1230  -15.9400 C   0  0  0  0  0  0  0  0  0  0  0  0
   -5.1050    5.6290  -15.7070 C   0  0  0  0  0  0  0  0  0  0  0  0
   -4.5040    5.9560  -16.8350 N   0  0  0  0  0  0  0  0  0  0  0  0
   -5.3940    5.6740  -17.8310 N   0  0  0  0  0  0  0  0  0  0  0  0
   -7.4840    4.6600  -15.1560 C   0  0  0  0  0  0  0  0  0  0  0  0
   -7.4060    4.6410  -13.6350 C   0  0  2  0  0  0  0  0  0  0  0  0
   -6.2300    3.7900  -13.0660 C   0  0  0  0  0  0  0  0  0  0  0  0
   -6.1670    2.3370  -13.4980 C   0  0  0  0  0  0  0  0  0  0  0  0
   -7.3260    1.7410  -13.6310 O   0  0  0  0  0  0  0  0  0  0  0  0
   -5.1060    1.7680  -13.6820 O   0  0  0  0  0  0  0  0  0  0  0  0
   -8.6210    4.2890  -12.9190 N   0  0  0  0  0  0  0  0  0  0  0  0
   -8.6800    4.2800  -11.5240 C   0  0  0  0  0  0  0  0  0  0  0  0
   -9.0830    3.1280  -10.8500 C   0  0  0  0  0  0  0  0  0  0  0  0
   -9.0770    3.0950   -9.4580 C   0  0  0  0  0  0  0  0  0  0  0  0
   -9.4230    1.9680   -8.5310 C   0  0  0  0  0  0  0  0  0  0  0  0
   -9.0240    2.5150   -7.2390 N   0  0  0  0  0  0  0  0  0  0  0  0
   -8.8080    3.9620   -7.2630 C   0  0  0  0  0  0  0  0  0  0  0  0
   -8.6820    4.2130   -8.7360 C   0  0  0  0  0  0  0  0  0  0  0  0
   -8.2810    5.3620   -9.4110 C   0  0  0  0  0  0  0  0  0  0  0  0
   -8.2820    5.3980  -10.7950 C   0  0  0  0  0  0  0  0  0  0  0  0
  2  1  1  0
  3  2  2  0
  4  2  1  0
  5  4  2  0
  6  5  1  0
  7  6  1  0
  8  7  2  0
  9  5  1  0
  9  8  1  0
 10  6  2  0
 10  3  1  0
 11 10  1  0
 11 12  1  6
 13 12  1  0
 14 13  2  0
 15 13  1  0
 16 11  1  0
 17 16  1  0
 18 17  2  0
 19 18  1  0
 20 19  1  0
 21 20  1  0
 22 21  1  0
 23 22  1  0
 23 19  2  0
 24 23  1  0
 25 17  1  0
 25 24  2  0
M  END
>  <smiles>  (240) 
O=C(O)C[C@H](Nc1ccc2c(c1)CNC2)c1cc(Cl)cc2[nH]ncc12

>  <inchikey>  (240) 
OQPJXTPLSPFWBZ-INIZCTEOSA-N

>  <alias>  (240) 
Z4132a

$$$$
Z4134a
     RDKit          3D

 23 26  0  0  0  0  0  0  0  0999 V2000
   -8.2220    7.1040   -8.9260 Br  0  0  0  0  0  0  0  0  0  0  0  0
   -8.4090    5.4440   -9.8240 C   0  0  0  0  0  0  0  0  0  0  0  0
   -8.5350    4.2910   -9.0830 C   0  0  0  0  0  0  0  0  0  0  0  0
   -8.6360    3.0820   -9.7510 C   0  0  0  0  0  0  0  0  0  0  0  0
   -8.6030    3.0380  -11.1340 C   0  0  0  0  0  0  0  0  0  0  0  0
   -8.3900    5.4340  -11.2010 C   0  0  0  0  0  0  0  0  0  0  0  0
   -8.4760    4.2140  -11.8610 C   0  0  0  0  0  0  0  0  0  0  0  0
   -8.3970    4.2130  -13.2740 N   0  0  0  0  0  0  0  0  0  0  0  0
   -7.6510    5.0390  -14.0440 C   0  0  0  0  0  0  0  0  0  0  0  0
   -6.9190    5.9150  -13.5930 O   0  0  0  0  0  0  0  0  0  0  0  0
   -7.7560    4.8110  -15.5190 C   0  0  0  0  0  0  0  0  0  0  0  0
   -6.7050    5.1350  -16.3930 C   0  0  0  0  0  0  0  0  0  0  0  0
   -6.8260    4.9480  -17.7800 C   0  0  0  0  0  0  0  0  0  0  0  0
   -8.0090    4.4240  -18.2950 C   0  0  0  0  0  0  0  0  0  0  0  0
   -9.0420    4.0800  -17.4360 C   0  0  0  0  0  0  0  0  0  0  0  0
   -8.9200    4.2740  -16.0670 C   0  0  0  0  0  0  0  0  0  0  0  0
   -5.4540    5.5970  -16.1650 N   0  0  0  0  0  0  0  0  0  0  0  0
   -4.7460    5.7180  -17.3300 N   0  0  0  0  0  0  0  0  0  0  0  0
   -5.5410    5.3400  -18.3080 C   0  0  0  0  0  0  0  0  0  0  0  0
   -5.0980    5.3590  -19.7430 C   0  0  2  0  0  0  0  0  0  0  0  0
   -3.5760    5.2570  -20.0200 C   0  0  0  0  0  0  0  0  0  0  0  0
   -3.7830    6.2740  -21.0750 N   0  0  0  0  0  0  0  0  0  0  0  0
   -4.9990    6.7670  -20.3850 C   0  0  0  0  0  0  0  0  0  0  0  0
  2  1  1  0
  3  2  2  0
  4  3  1  0
  5  4  2  0
  6  2  1  0
  7  6  2  0
  7  5  1  0
  8  7  1  0
  9  8  1  0
 10  9  2  0
 11  9  1  0
 12 11  2  0
 13 12  1  0
 14 13  2  0
 15 14  1  0
 16 15  2  0
 16 11  1  0
 17 12  1  0
 18 17  1  0
 19 13  1  0
 19 18  2  0
 20 19  1  1
 21 20  1  0
 22 21  1  0
 23 20  1  0
 23 22  1  0
M  END
>  <smiles>  (241) 
O=C(Nc1cccc(Br)c1)c1cccc2c(C3CNC3)n[nH]c12

>  <inchikey>  (241) 
GBTAZWMZQGEELN-UHFFFAOYSA-N

>  <alias>  (241) 
Z4134a

$$$$
Z4138a
     RDKit          3D

 28 31  0  0  0  0  0  0  0  0999 V2000
  -10.3560    3.9890  -18.0960 Cl  0  0  0  0  0  0  0  0  0  0  0  0
   -8.9110    4.3950  -17.2160 C   0  0  0  0  0  0  0  0  0  0  0  0
   -8.8900    4.2570  -15.8350 C   0  0  0  0  0  0  0  0  0  0  0  0
   -7.8120    4.8310  -17.9190 C   0  0  0  0  0  0  0  0  0  0  0  0
   -6.6430    5.1460  -17.2400 C   0  0  0  0  0  0  0  0  0  0  0  0
   -5.4170    5.5830  -18.0150 C   0  0  2  0  0  0  0  0  0  0  0  0
   -4.0530    5.0470  -17.6820 C   0  0  0  0  0  0  0  0  0  0  0  0
   -4.3710    6.4650  -17.3920 C   0  0  0  0  0  0  0  0  0  0  0  0
   -6.6220    5.0120  -15.8550 C   0  0  0  0  0  0  0  0  0  0  0  0
   -7.7240    4.5590  -15.1350 C   0  0  0  0  0  0  0  0  0  0  0  0
   -7.6000    4.3150  -13.6350 C   0  0  2  0  0  0  0  0  0  0  0  0
   -6.7040    3.0930  -13.3840 C   0  0  0  0  0  0  0  0  0  0  0  0
   -5.5280    3.3800  -12.8310 N   0  0  0  0  0  0  0  0  0  0  0  0
   -4.6720    2.3660  -12.2400 C   0  0  0  0  0  0  0  0  0  0  0  0
   -3.2530    2.4590  -12.7430 C   0  0  0  0  0  0  0  0  0  0  0  0
   -3.1190    1.9130  -14.1310 C   0  0  0  0  0  0  0  0  0  0  0  0
   -2.8460    2.9340  -14.9990 F   0  0  0  0  0  0  0  0  0  0  0  0
   -7.0540    1.9510  -13.6790 O   0  0  0  0  0  0  0  0  0  0  0  0
   -8.7730    4.2840  -12.7830 N   0  0  0  0  0  0  0  0  0  0  0  0
   -8.6620    4.2630  -11.3760 C   0  0  0  0  0  0  0  0  0  0  0  0
   -8.9410    3.0890  -10.6750 C   0  0  0  0  0  0  0  0  0  0  0  0
   -8.9230    3.0800   -9.2810 C   0  0  0  0  0  0  0  0  0  0  0  0
   -9.1880    1.9460   -8.3350 C   0  0  0  0  0  0  0  0  0  0  0  0
   -8.8140    2.5300   -7.0380 N   0  0  0  0  0  0  0  0  0  0  0  0
   -8.7170    3.9990   -7.1030 C   0  0  0  0  0  0  0  0  0  0  0  0
   -8.6310    4.2420   -8.5810 C   0  0  0  0  0  0  0  0  0  0  0  0
   -8.3270    5.4070   -9.2810 C   0  0  0  0  0  0  0  0  0  0  0  0
   -8.3300    5.4170  -10.6680 C   0  0  0  0  0  0  0  0  0  0  0  0
  2  1  1  0
  3  2  2  0
  4  2  1  0
  5  4  2  0
  6  5  1  1
  7  6  1  0
  8  7  1  0
  8  6  1  0
  9  5  1  0
 10  9  2  0
 10  3  1  0
 11 10  1  0
 12 11  1  0
 13 12  1  0
 14 13  1  0
 15 14  1  0
 16 15  1  0
 17 16  1  0
 18 12  2  0
 11 19  1  6
 20 19  1  0
 21 20  2  0
 22 21  1  0
 23 22  1  0
 24 23  1  0
 25 24  1  0
 26 25  1  0
 26 22  2  0
 27 26  1  0
 28 20  1  0
 28 27  2  0
M  END
>  <smiles>  (242) 
O=C(NCCCF)[C@H](Nc1ccc2c(c1)CNC2)c1cc(Cl)cc(C2CC2)c1

>  <inchikey>  (242) 
PRKQRQUDBSFLCZ-OAQYLSRUSA-N

>  <alias>  (242) 
Z4138a

$$$$
Z4139a
     RDKit          3D

 28 30  0  0  0  0  0  0  0  0999 V2000
   -2.6670    2.6400  -13.3590 F   0  0  0  0  0  0  0  0  0  0  0  0
   -3.7210    3.1360  -14.0450 C   0  0  1  0  0  0  0  0  0  0  0  0
   -4.2390    2.0810  -14.7250 F   0  0  0  0  0  0  0  0  0  0  0  0
   -4.7260    3.7510  -12.9710 C   0  0  0  0  0  0  0  0  0  0  0  0
   -5.8240    2.8890  -12.5660 N   0  0  0  0  0  0  0  0  0  0  0  0
   -6.9180    2.6840  -13.3030 C   0  0  0  0  0  0  0  0  0  0  0  0
   -7.1810    1.6040  -13.8140 O   0  0  0  0  0  0  0  0  0  0  0  0
   -7.9250    3.9020  -13.4000 C   0  0  2  0  0  0  0  0  0  0  0  0
   -7.8780    4.4730  -14.8140 C   0  0  0  0  0  0  0  0  0  0  0  0
   -8.8470    4.1180  -15.7440 C   0  0  0  0  0  0  0  0  0  0  0  0
   -8.7110    4.5180  -17.0600 C   0  0  0  0  0  0  0  0  0  0  0  0
   -9.9410    4.0760  -18.2140 Cl  0  0  0  0  0  0  0  0  0  0  0  0
   -7.6330    5.2660  -17.4830 C   0  0  0  0  0  0  0  0  0  0  0  0
   -6.8040    5.2540  -15.2320 C   0  0  0  0  0  0  0  0  0  0  0  0
   -6.6680    5.6510  -16.5600 C   0  0  0  0  0  0  0  0  0  0  0  0
   -5.4950    6.4780  -17.0000 C   0  0  0  0  0  0  0  0  0  0  0  0
   -4.2750    5.8520  -16.6590 O   0  0  0  0  0  0  0  0  0  0  0  0
   -3.9260    4.8160  -17.5720 C   0  0  0  0  0  0  0  0  0  0  0  0
   -7.8510    4.9120  -12.3610 N   0  0  0  0  0  0  0  0  0  0  0  0
   -8.1370    4.7010  -11.0060 C   0  0  0  0  0  0  0  0  0  0  0  0
   -8.4570    3.4380  -10.5040 C   0  0  0  0  0  0  0  0  0  0  0  0
   -8.6830    3.2630   -9.1400 C   0  0  0  0  0  0  0  0  0  0  0  0
   -9.0510    2.0190   -8.3860 C   0  0  0  0  0  0  0  0  0  0  0  0
   -8.8150    2.4470   -7.0080 N   0  0  0  0  0  0  0  0  0  0  0  0
   -8.8180    3.9070   -6.8570 C   0  0  0  0  0  0  0  0  0  0  0  0
   -8.5900    4.3430   -8.2730 C   0  0  0  0  0  0  0  0  0  0  0  0
   -8.2970    5.6050   -8.7790 C   0  0  0  0  0  0  0  0  0  0  0  0
   -8.0670    5.7850  -10.1330 C   0  0  0  0  0  0  0  0  0  0  0  0
  2  1  1  1
  3  2  1  0
  4  2  1  0
  5  4  1  0
  6  5  1  0
  7  6  2  0
  8  6  1  0
  9  8  1  0
 10  9  2  0
 11 10  1  0
 12 11  1  0
 13 11  2  0
 14  9  1  0
 15 13  1  0
 15 14  2  0
 16 15  1  0
 17 16  1  0
 18 17  1  0
  8 19  1  1
 20 19  1  0
 21 20  2  0
 22 21  1  0
 23 22  1  0
 24 23  1  0
 25 24  1  0
 26 25  1  0
 26 22  2  0
 27 26  1  0
 28 20  1  0
 28 27  2  0
M  END
>  <smiles>  (243) 
COCc1cc(Cl)cc([C@H](Nc2ccc3c(c2)CNC3)C(=O)NCC(F)F)c1

>  <inchikey>  (243) 
HYFHHERLTIVBRW-IBGZPJMESA-N

>  <alias>  (243) 
Z4139a

$$$$
Z4153a
     RDKit          3D

 26 30  0  0  0  0  0  0  0  0999 V2000
  -10.2390    3.9940  -17.6950 F   0  0  0  0  0  0  0  0  0  0  0  0
   -9.0160    4.1860  -17.1140 C   0  0  0  0  0  0  0  0  0  0  0  0
   -8.9430    4.2390  -15.7370 C   0  0  0  0  0  0  0  0  0  0  0  0
   -7.9410    4.3870  -17.9420 C   0  0  0  0  0  0  0  0  0  0  0  0
   -6.7220    4.6720  -17.3480 C   0  0  0  0  0  0  0  0  0  0  0  0
   -5.4920    4.9270  -17.8840 N   0  0  0  0  0  0  0  0  0  0  0  0
   -5.1160    5.0190  -19.2990 C   0  0  1  0  0  0  0  0  0  0  0  0
   -4.7270    6.4090  -19.8410 C   0  0  0  0  0  0  0  0  0  0  0  0
   -3.6210    5.7460  -20.5700 N   0  0  0  0  0  0  0  0  0  0  0  0
   -3.6610    4.6080  -19.6160 C   0  0  0  0  0  0  0  0  0  0  0  0
   -4.5590    5.1470  -16.9090 N   0  0  0  0  0  0  0  0  0  0  0  0
   -5.1980    5.0470  -15.7590 C   0  0  0  0  0  0  0  0  0  0  0  0
   -6.5710    4.7490  -15.9510 C   0  0  0  0  0  0  0  0  0  0  0  0
   -7.7070    4.5270  -15.1440 C   0  0  0  0  0  0  0  0  0  0  0  0
   -7.6040    4.6730  -13.6500 C   0  0  0  0  0  0  0  0  0  0  0  0
   -6.7450    5.4060  -13.1610 O   0  0  0  0  0  0  0  0  0  0  0  0
   -8.4770    3.9550  -12.8880 N   0  0  0  0  0  0  0  0  0  0  0  0
   -8.5360    3.9660  -11.4570 C   0  0  0  0  0  0  0  0  0  0  0  0
   -8.7370    2.7790  -10.7540 C   0  0  0  0  0  0  0  0  0  0  0  0
   -8.8110    2.7870   -9.3610 C   0  0  0  0  0  0  0  0  0  0  0  0
   -9.1070    1.6610   -8.4150 C   0  0  0  0  0  0  0  0  0  0  0  0
   -8.7940    2.2540   -7.0870 N   0  0  0  0  0  0  0  0  0  0  0  0
   -8.7480    3.7330   -7.1830 C   0  0  0  0  0  0  0  0  0  0  0  0
   -8.6390    3.9740   -8.6590 C   0  0  0  0  0  0  0  0  0  0  0  0
   -8.4140    5.1580   -9.3580 C   0  0  0  0  0  0  0  0  0  0  0  0
   -8.3800    5.1600  -10.7460 C   0  0  0  0  0  0  0  0  0  0  0  0
  2  1  1  0
  3  2  2  0
  4  2  1  0
  5  4  2  0
  6  5  1  0
  7  6  1  1
  8  7  1  0
  9  8  1  0
 10  7  1  0
 10  9  1  0
 11  6  1  0
 12 11  2  0
 13  5  1  0
 13 12  1  0
 14 13  2  0
 14  3  1  0
 15 14  1  0
 16 15  2  0
 17 15  1  0
 18 17  1  0
 19 18  2  0
 20 19  1  0
 21 20  1  0
 22 21  1  0
 23 22  1  0
 24 23  1  0
 24 20  2  0
 25 24  1  0
 26 18  1  0
 26 25  2  0
M  END
>  <smiles>  (244) 
O=C(Nc1ccc2c(c1)CNC2)c1cc(F)cc2c1cnn2C1CNC1

>  <inchikey>  (244) 
FADNEVCEELWGKS-UHFFFAOYSA-N

>  <alias>  (244) 
Z4153a

$$$$
Z4160a
     RDKit          3D

 26 29  0  0  0  0  0  0  0  0999 V2000
   -7.1020    1.4850  -13.4570 O   0  0  0  0  0  0  0  0  0  0  0  0
   -6.8490    2.5400  -12.8860 C   0  0  0  0  0  0  0  0  0  0  0  0
   -5.8440    2.6630  -12.0070 N   0  0  0  0  0  0  0  0  0  0  0  0
   -4.4250    2.8240  -12.3520 C   0  0  2  0  0  0  0  0  0  0  0  0
   -4.0270    2.0430  -13.6010 C   0  0  0  0  0  0  0  0  0  0  0  0
   -3.5890    2.4290  -11.1550 C   0  0  0  0  0  0  0  0  0  0  0  0
   -7.8300    3.7610  -13.0090 C   0  0  2  0  0  0  0  0  0  0  0  0
   -7.7380    4.3340  -14.4170 C   0  0  0  0  0  0  0  0  0  0  0  0
   -8.7710    4.1100  -15.3210 C   0  0  0  0  0  0  0  0  0  0  0  0
   -8.6020    4.3980  -16.6760 C   0  0  0  0  0  0  0  0  0  0  0  0
   -9.5290    4.1590  -17.7040 N   0  0  0  0  0  0  0  0  0  0  0  0
   -9.0210    4.5040  -18.8420 C   0  0  0  0  0  0  0  0  0  0  0  0
   -7.4080    5.1480  -18.8260 S   0  0  0  0  0  0  0  0  0  0  0  0
   -7.3880    4.9530  -17.1020 C   0  0  0  0  0  0  0  0  0  0  0  0
   -6.3720    5.2450  -16.1980 C   0  0  0  0  0  0  0  0  0  0  0  0
   -6.5600    4.9330  -14.8610 C   0  0  0  0  0  0  0  0  0  0  0  0
   -7.7150    4.7800  -11.9790 N   0  0  0  0  0  0  0  0  0  0  0  0
   -8.0790    4.5750  -10.6470 C   0  0  0  0  0  0  0  0  0  0  0  0
   -8.4280    3.3140  -10.1580 C   0  0  0  0  0  0  0  0  0  0  0  0
   -8.6660    3.1260   -8.7970 C   0  0  0  0  0  0  0  0  0  0  0  0
   -9.0660    1.8860   -8.0500 C   0  0  0  0  0  0  0  0  0  0  0  0
   -8.9790    2.3170   -6.6460 N   0  0  0  0  0  0  0  0  0  0  0  0
   -8.8150    3.7650   -6.5110 C   0  0  0  0  0  0  0  0  0  0  0  0
   -8.5690    4.2060   -7.9250 C   0  0  0  0  0  0  0  0  0  0  0  0
   -8.2610    5.4680   -8.4200 C   0  0  0  0  0  0  0  0  0  0  0  0
   -8.0170    5.6550   -9.7700 C   0  0  0  0  0  0  0  0  0  0  0  0
  2  1  2  0
  3  2  1  0
  4  3  1  0
  4  5  1  6
  6  4  1  0
  7  2  1  0
  8  7  1  0
  9  8  2  0
 10  9  1  0
 11 10  1  0
 12 11  2  0
 13 12  1  0
 14 13  1  0
 14 10  2  0
 15 14  1  0
 16 15  2  0
 16  8  1  0
  7 17  1  1
 18 17  1  0
 19 18  2  0
 20 19  1  0
 21 20  1  0
 22 21  1  0
 23 22  1  0
 24 23  1  0
 24 20  2  0
 25 24  1  0
 26 18  1  0
 26 25  2  0
M  END
>  <smiles>  (245) 
CC(C)NC(=O)[C@@H](Nc1ccc2c(c1)CNC2)c1ccc2scnc2c1

>  <inchikey>  (245) 
MQIIDXAYYJSUDJ-IBGZPJMESA-N

>  <alias>  (245) 
Z4160a

$$$$
Z4161a
     RDKit          3D

 29 33  0  0  0  0  0  0  0  0999 V2000
   -6.5470    5.3750  -12.8230 O   0  0  0  0  0  0  0  0  0  0  0  0
   -7.4200    4.6910  -13.3530 C   0  0  0  0  0  0  0  0  0  0  0  0
   -8.3200    3.9640  -12.6410 N   0  0  0  0  0  0  0  0  0  0  0  0
   -8.4170    3.8980  -11.2210 C   0  0  0  0  0  0  0  0  0  0  0  0
   -8.6560    2.6980  -10.5520 C   0  0  0  0  0  0  0  0  0  0  0  0
   -8.7720    2.6800   -9.1590 C   0  0  0  0  0  0  0  0  0  0  0  0
   -9.0990    1.5370   -8.2440 C   0  0  0  0  0  0  0  0  0  0  0  0
   -8.8160    2.1260   -6.9200 N   0  0  0  0  0  0  0  0  0  0  0  0
   -8.7480    3.5880   -6.9610 C   0  0  0  0  0  0  0  0  0  0  0  0
   -8.6240    3.8550   -8.4320 C   0  0  0  0  0  0  0  0  0  0  0  0
   -8.3900    5.0510   -9.1010 C   0  0  0  0  0  0  0  0  0  0  0  0
   -8.2930    5.0750  -10.4850 C   0  0  0  0  0  0  0  0  0  0  0  0
   -7.5040    4.5850  -14.8430 C   0  0  0  0  0  0  0  0  0  0  0  0
   -8.6570    4.1280  -15.4900 C   0  0  0  0  0  0  0  0  0  0  0  0
   -8.7100    4.0290  -16.8700 C   0  0  0  0  0  0  0  0  0  0  0  0
   -6.3910    4.9680  -15.5920 C   0  0  0  0  0  0  0  0  0  0  0  0
   -6.4330    4.9060  -16.9860 C   0  0  0  0  0  0  0  0  0  0  0  0
   -7.5990    4.4250  -17.6060 C   0  0  0  0  0  0  0  0  0  0  0  0
   -7.4030    4.4920  -18.9650 N   0  0  0  0  0  0  0  0  0  0  0  0
   -6.1660    5.0120  -19.2120 C   0  0  0  0  0  0  0  0  0  0  0  0
   -5.5250    5.2900  -18.0400 C   0  0  0  0  0  0  0  0  0  0  0  0
   -4.1800    5.9490  -17.8950 C   0  0  1  0  0  0  0  0  0  0  0  0
   -4.2350    7.3940  -17.3960 C   0  0  0  0  0  0  0  0  0  0  0  0
   -2.8450    8.0040  -17.6030 C   0  0  0  0  0  0  0  0  0  0  0  0
   -3.1480    5.1560  -17.0870 C   0  0  0  0  0  0  0  0  0  0  0  0
   -1.7770    5.8310  -17.2700 C   0  0  0  0  0  0  0  0  0  0  0  0
   -1.8060    7.2580  -16.8520 N   0  0  0  0  0  0  0  0  0  0  0  0
   -0.4770    7.8830  -17.0700 C   0  0  0  0  0  0  0  0  0  0  0  0
   -0.3050    9.2350  -16.4070 C   0  0  0  0  0  0  0  0  0  0  0  0
  2  1  2  0
  3  2  1  0
  4  3  1  0
  5  4  2  0
  6  5  1  0
  7  6  1  0
  8  7  1  0
  9  8  1  0
 10  9  1  0
 10  6  2  0
 11 10  1  0
 12  4  1  0
 12 11  2  0
 13  2  1  0
 14 13  2  0
 15 14  1  0
 16 13  1  0
 17 16  2  0
 18 17  1  0
 18 15  2  0
 19 18  1  0
 20 19  1  0
 21 20  2  0
 21 17  1  0
 22 21  1  1
 23 22  1  0
 24 23  1  0
 25 22  1  0
 26 25  1  0
 27 26  1  0
 27 24  1  0
 28 27  1  0
 29 28  1  0
M  END
>  <smiles>  (246) 
CCN1CCC(c2c[nH]c3ccc(C(=O)Nc4ccc5c(c4)CNC5)cc23)CC1

>  <inchikey>  (246) 
WGYCZEGWXMUHKF-UHFFFAOYSA-N

>  <alias>  (246) 
Z4161a

$$$$
Z4164a
     RDKit          3D

 23 26  0  0  0  0  0  0  0  0999 V2000
   -9.0620    2.1600   -9.1510 F   0  0  0  0  0  0  0  0  0  0  0  0
   -8.7230    3.2970   -9.8120 C   0  0  0  0  0  0  0  0  0  0  0  0
   -8.4400    4.4160   -9.0790 C   0  0  0  0  0  0  0  0  0  0  0  0
   -8.1600    5.5870   -9.7630 C   0  0  0  0  0  0  0  0  0  0  0  0
   -8.1650    5.6120  -11.1490 C   0  0  0  0  0  0  0  0  0  0  0  0
   -8.7200    3.2710  -11.1850 C   0  0  0  0  0  0  0  0  0  0  0  0
   -8.4380    4.4520  -11.8630 C   0  0  0  0  0  0  0  0  0  0  0  0
   -8.4240    4.4530  -13.2790 N   0  0  0  0  0  0  0  0  0  0  0  0
   -7.4790    4.9970  -14.0830 C   0  0  0  0  0  0  0  0  0  0  0  0
   -6.4990    5.6020  -13.6590 O   0  0  0  0  0  0  0  0  0  0  0  0
   -7.6500    4.7640  -15.5550 C   0  0  0  0  0  0  0  0  0  0  0  0
   -6.6180    5.0630  -16.4570 C   0  0  0  0  0  0  0  0  0  0  0  0
   -6.7430    4.8110  -17.8340 C   0  0  0  0  0  0  0  0  0  0  0  0
   -7.9280    4.2620  -18.3150 C   0  0  0  0  0  0  0  0  0  0  0  0
   -8.9600    3.9730  -17.4330 C   0  0  0  0  0  0  0  0  0  0  0  0
   -8.8240    4.2170  -16.0730 C   0  0  0  0  0  0  0  0  0  0  0  0
   -5.3840    5.5860  -16.2610 N   0  0  0  0  0  0  0  0  0  0  0  0
   -4.6910    5.6870  -17.4340 N   0  0  0  0  0  0  0  0  0  0  0  0
   -5.4740    5.2300  -18.3840 C   0  0  0  0  0  0  0  0  0  0  0  0
   -5.0160    5.1710  -19.8160 C   0  0  2  0  0  0  0  0  0  0  0  0
   -3.4850    5.0070  -19.9900 C   0  0  0  0  0  0  0  0  0  0  0  0
   -3.4730    6.1930  -20.8760 N   0  0  0  0  0  0  0  0  0  0  0  0
   -4.8720    6.5390  -20.5310 C   0  0  0  0  0  0  0  0  0  0  0  0
  2  1  1  0
  3  2  2  0
  4  3  1  0
  5  4  2  0
  6  2  1  0
  7  6  2  0
  7  5  1  0
  8  7  1  0
  9  8  1  0
 10  9  2  0
 11  9  1  0
 12 11  2  0
 13 12  1  0
 14 13  2  0
 15 14  1  0
 16 15  2  0
 16 11  1  0
 17 12  1  0
 18 17  1  0
 19 13  1  0
 19 18  2  0
 20 19  1  1
 21 20  1  0
 22 21  1  0
 23 20  1  0
 23 22  1  0
M  END
>  <smiles>  (247) 
O=C(Nc1cccc(F)c1)c1cccc2c(C3CNC3)n[nH]c12

>  <inchikey>  (247) 
HXGWBNDFXGUFRV-UHFFFAOYSA-N

>  <alias>  (247) 
Z4164a

$$$$
Z4168a
     RDKit          3D

 28 32  0  0  0  0  0  0  0  0999 V2000
   -9.7710    3.6310  -18.0380 Cl  0  0  0  0  0  0  0  0  0  0  0  0
   -8.4330    4.1920  -17.0880 C   0  0  0  0  0  0  0  0  0  0  0  0
   -8.5170    4.1810  -15.7050 C   0  0  0  0  0  0  0  0  0  0  0  0
   -7.2890    4.6730  -17.7220 C   0  0  0  0  0  0  0  0  0  0  0  0
   -6.2130    5.1560  -16.9590 C   0  0  0  0  0  0  0  0  0  0  0  0
   -5.2000    5.5740  -17.8870 C   0  0  0  0  0  0  0  0  0  0  0  0
   -3.8940    6.2270  -17.5230 C   0  0  1  0  0  0  0  0  0  0  0  0
   -2.8470    5.2050  -17.0580 C   0  0  0  0  0  0  0  0  0  0  0  0
   -1.5260    5.8850  -16.7350 C   0  0  0  0  0  0  0  0  0  0  0  0
   -1.0390    6.6570  -17.8940 N   0  0  0  0  0  0  0  0  0  0  0  0
   -2.0090    7.7030  -18.2790 C   0  0  0  0  0  0  0  0  0  0  0  0
   -3.3340    7.0730  -18.6690 C   0  0  0  0  0  0  0  0  0  0  0  0
   -5.6930    5.3220  -19.1350 C   0  0  0  0  0  0  0  0  0  0  0  0
   -6.9490    4.7820  -19.0490 N   0  0  0  0  0  0  0  0  0  0  0  0
   -6.3040    5.1400  -15.5670 C   0  0  0  0  0  0  0  0  0  0  0  0
   -7.4510    4.6560  -14.9390 C   0  0  0  0  0  0  0  0  0  0  0  0
   -7.3980    4.7360  -13.4450 C   0  0  0  0  0  0  0  0  0  0  0  0
   -6.5320    5.4080  -12.8830 O   0  0  0  0  0  0  0  0  0  0  0  0
   -8.3230    4.0220  -12.7610 N   0  0  0  0  0  0  0  0  0  0  0  0
   -8.4400    3.9740  -11.3390 C   0  0  0  0  0  0  0  0  0  0  0  0
   -8.6410    2.7700  -10.6700 C   0  0  0  0  0  0  0  0  0  0  0  0
   -8.7220    2.7450   -9.2780 C   0  0  0  0  0  0  0  0  0  0  0  0
   -9.0260    1.5940   -8.3660 C   0  0  0  0  0  0  0  0  0  0  0  0
   -8.7340    2.1830   -7.0490 N   0  0  0  0  0  0  0  0  0  0  0  0
   -8.7090    3.6510   -7.0800 C   0  0  0  0  0  0  0  0  0  0  0  0
   -8.5990    3.9240   -8.5510 C   0  0  0  0  0  0  0  0  0  0  0  0
   -8.4020    5.1280   -9.2210 C   0  0  0  0  0  0  0  0  0  0  0  0
   -8.3180    5.1520  -10.6050 C   0  0  0  0  0  0  0  0  0  0  0  0
  2  1  1  0
  3  2  2  0
  4  2  1  0
  5  4  2  0
  6  5  1  0
  7  6  1  6
  8  7  1  0
  9  8  1  0
 10  9  1  0
 11 10  1  0
 12 11  1  0
 12  7  1  0
 13  6  2  0
 14 13  1  0
 14  4  1  0
 15  5  1  0
 16 15  2  0
 16  3  1  0
 17 16  1  0
 18 17  2  0
 19 17  1  0
 20 19  1  0
 21 20  2  0
 22 21  1  0
 23 22  1  0
 24 23  1  0
 25 24  1  0
 26 25  1  0
 26 22  2  0
 27 26  1  0
 28 20  1  0
 28 27  2  0
M  END
>  <smiles>  (248) 
O=C(Nc1ccc2c(c1)CNC2)c1cc(Cl)c2[nH]cc(C3CCNCC3)c2c1

>  <inchikey>  (248) 
FOXOYKNZORPOPR-UHFFFAOYSA-N

>  <alias>  (248) 
Z4168a

$$$$
Z4169a
     RDKit          3D

 28 32  0  0  0  0  0  0  0  0999 V2000
   -9.7620    3.7290  -17.6780 F   0  0  0  0  0  0  0  0  0  0  0  0
   -8.6880    4.1840  -16.9930 C   0  0  0  0  0  0  0  0  0  0  0  0
   -8.7250    4.2430  -15.6220 C   0  0  0  0  0  0  0  0  0  0  0  0
   -7.5670    4.5420  -17.7180 C   0  0  0  0  0  0  0  0  0  0  0  0
   -6.4130    4.9610  -17.0310 C   0  0  0  0  0  0  0  0  0  0  0  0
   -5.4010    5.1990  -18.0250 C   0  0  0  0  0  0  0  0  0  0  0  0
   -3.9670    5.5700  -17.7580 C   0  0  2  0  0  0  0  0  0  0  0  0
   -3.8360    6.8950  -16.9920 C   0  0  0  0  0  0  0  0  0  0  0  0
   -2.3740    7.1880  -16.7120 C   0  0  0  0  0  0  0  0  0  0  0  0
   -1.6180    7.2720  -17.9770 N   0  0  0  0  0  0  0  0  0  0  0  0
   -1.6840    5.9930  -18.7370 C   0  0  0  0  0  0  0  0  0  0  0  0
   -3.1280    5.6240  -19.0450 C   0  0  0  0  0  0  0  0  0  0  0  0
   -5.9830    4.9430  -19.2330 C   0  0  0  0  0  0  0  0  0  0  0  0
   -7.2830    4.5470  -19.0600 N   0  0  0  0  0  0  0  0  0  0  0  0
   -6.4400    5.0250  -15.6370 C   0  0  0  0  0  0  0  0  0  0  0  0
   -7.5890    4.6710  -14.9340 C   0  0  0  0  0  0  0  0  0  0  0  0
   -7.5080    4.8000  -13.4460 C   0  0  0  0  0  0  0  0  0  0  0  0
   -6.6140    5.4600  -12.9210 O   0  0  0  0  0  0  0  0  0  0  0  0
   -8.4490    4.1340  -12.7390 N   0  0  0  0  0  0  0  0  0  0  0  0
   -8.5480    4.0880  -11.3270 C   0  0  0  0  0  0  0  0  0  0  0  0
   -8.7870    2.8950  -10.6510 C   0  0  0  0  0  0  0  0  0  0  0  0
   -8.8490    2.8800   -9.2610 C   0  0  0  0  0  0  0  0  0  0  0  0
   -9.1460    1.7390   -8.3350 C   0  0  0  0  0  0  0  0  0  0  0  0
   -8.9420    2.3530   -7.0300 N   0  0  0  0  0  0  0  0  0  0  0  0
   -8.7640    3.7950   -7.0700 C   0  0  0  0  0  0  0  0  0  0  0  0
   -8.6500    4.0510   -8.5430 C   0  0  0  0  0  0  0  0  0  0  0  0
   -8.3990    5.2390   -9.2190 C   0  0  0  0  0  0  0  0  0  0  0  0
   -8.3590    5.2610  -10.6020 C   0  0  0  0  0  0  0  0  0  0  0  0
  2  1  1  0
  3  2  2  0
  4  2  1  0
  5  4  2  0
  6  5  1  0
  7  6  1  6
  8  7  1  0
  9  8  1  0
 10  9  1  0
 11 10  1  0
 12 11  1  0
 12  7  1  0
 13  6  2  0
 14 13  1  0
 14  4  1  0
 15  5  1  0
 16 15  2  0
 16  3  1  0
 17 16  1  0
 18 17  2  0
 19 17  1  0
 20 19  1  0
 21 20  2  0
 22 21  1  0
 23 22  1  0
 24 23  1  0
 25 24  1  0
 26 25  1  0
 26 22  2  0
 27 26  1  0
 28 20  1  0
 28 27  2  0
M  END
>  <smiles>  (249) 
O=C(Nc1ccc2c(c1)CNC2)c1cc(F)c2[nH]cc(C3CCNCC3)c2c1

>  <inchikey>  (249) 
UXDVGLDSYRCDPJ-UHFFFAOYSA-N

>  <alias>  (249) 
Z4169a

$$$$
Z4178a
     RDKit          3D

 28 32  0  0  0  0  0  0  0  0999 V2000
   -6.5630    5.6690  -12.8520 O   0  0  0  0  0  0  0  0  0  0  0  0
   -7.4210    4.9620  -13.3750 C   0  0  0  0  0  0  0  0  0  0  0  0
   -7.5050    4.8260  -14.8590 C   0  0  0  0  0  0  0  0  0  0  0  0
   -8.6030    4.2240  -15.4740 C   0  0  0  0  0  0  0  0  0  0  0  0
   -8.6570    4.0770  -16.8470 C   0  0  0  0  0  0  0  0  0  0  0  0
   -6.4430    5.2940  -15.6290 C   0  0  0  0  0  0  0  0  0  0  0  0
   -6.4700    5.1490  -17.0110 C   0  0  0  0  0  0  0  0  0  0  0  0
   -7.5890    4.5400  -17.6050 C   0  0  0  0  0  0  0  0  0  0  0  0
   -7.3520    4.5240  -18.9410 N   0  0  0  0  0  0  0  0  0  0  0  0
   -6.1450    5.0880  -19.2510 N   0  0  0  0  0  0  0  0  0  0  0  0
   -5.5970    5.4690  -18.1150 C   0  0  0  0  0  0  0  0  0  0  0  0
   -4.2600    6.1620  -18.0820 C   0  0  1  0  0  0  0  0  0  0  0  0
   -4.2390    7.4640  -17.2700 C   0  0  0  0  0  0  0  0  0  0  0  0
   -2.9110    8.2160  -17.5050 C   0  0  0  0  0  0  0  0  0  0  0  0
   -3.1050    5.2640  -17.6250 C   0  0  0  0  0  0  0  0  0  0  0  0
   -2.1210    6.0520  -16.7320 C   0  0  0  0  0  0  0  0  0  0  0  0
   -1.7440    7.3350  -17.3440 N   0  0  0  0  0  0  0  0  0  0  0  0
   -1.0400    7.1360  -18.6300 C   0  0  0  0  0  0  0  0  0  0  0  0
   -8.3200    4.2360  -12.6740 N   0  0  0  0  0  0  0  0  0  0  0  0
   -8.4250    4.1430  -11.2710 C   0  0  0  0  0  0  0  0  0  0  0  0
   -8.7420    2.9210  -10.6850 C   0  0  0  0  0  0  0  0  0  0  0  0
   -8.9010    2.8310   -9.3060 C   0  0  0  0  0  0  0  0  0  0  0  0
   -9.3040    1.6540   -8.4690 C   0  0  0  0  0  0  0  0  0  0  0  0
   -8.9750    2.1520   -7.1310 N   0  0  0  0  0  0  0  0  0  0  0  0
   -8.8990    3.6080   -7.0620 C   0  0  0  0  0  0  0  0  0  0  0  0
   -8.7170    3.9530   -8.5090 C   0  0  0  0  0  0  0  0  0  0  0  0
   -8.3930    5.1690   -9.0970 C   0  0  0  0  0  0  0  0  0  0  0  0
   -8.2500    5.2670  -10.4690 C   0  0  0  0  0  0  0  0  0  0  0  0
  2  1  2  0
  3  2  1  0
  4  3  2  0
  5  4  1  0
  6  3  1  0
  7  6  2  0
  8  7  1  0
  8  5  2  0
  9  8  1  0
 10  9  1  0
 11 10  2  0
 11  7  1  0
 12 11  1  1
 13 12  1  0
 14 13  1  0
 15 12  1  0
 16 15  1  0
 17 16  1  0
 17 14  1  0
 18 17  1  0
 19  2  1  0
 20 19  1  0
 21 20  2  0
 22 21  1  0
 23 22  1  0
 24 23  1  0
 25 24  1  0
 26 25  1  0
 26 22  2  0
 27 26  1  0
 28 20  1  0
 28 27  2  0
M  END
>  <smiles>  (250) 
CN1CCC(c2n[nH]c3ccc(C(=O)Nc4ccc5c(c4)CNC5)cc23)CC1

>  <inchikey>  (250) 
VMAFDCLSBGDHKU-UHFFFAOYSA-N

>  <alias>  (250) 
Z4178a

$$$$
Z4179a
     RDKit          3D

 17 19  0  0  0  0  0  0  0  0999 V2000
  -10.5930    3.9220  -18.3260 Cl  0  0  0  0  0  0  0  0  0  0  0  0
   -9.0910    4.3060  -17.5340 C   0  0  0  0  0  0  0  0  0  0  0  0
   -9.0620    4.3870  -16.1530 C   0  0  0  0  0  0  0  0  0  0  0  0
   -7.9900    4.6040  -18.3050 C   0  0  0  0  0  0  0  0  0  0  0  0
   -6.8350    5.0250  -17.6650 C   0  0  0  0  0  0  0  0  0  0  0  0
   -5.6000    5.3380  -18.1510 N   0  0  0  0  0  0  0  0  0  0  0  0
   -5.1640    5.3490  -19.5520 C   0  0  1  0  0  0  0  0  0  0  0  0
   -4.9880    6.7330  -20.2020 C   0  0  0  0  0  0  0  0  0  0  0  0
   -3.7490    6.2150  -20.8350 N   0  0  0  0  0  0  0  0  0  0  0  0
   -3.6650    5.1190  -19.8360 C   0  0  0  0  0  0  0  0  0  0  0  0
   -4.7380    5.6760  -17.1440 N   0  0  0  0  0  0  0  0  0  0  0  0
   -5.4260    5.5850  -16.0240 C   0  0  0  0  0  0  0  0  0  0  0  0
   -6.7610    5.1700  -16.2670 C   0  0  0  0  0  0  0  0  0  0  0  0
   -7.9050    4.8400  -15.5140 C   0  0  0  0  0  0  0  0  0  0  0  0
   -7.8810    4.9930  -14.0240 C   0  0  0  0  0  0  0  0  0  0  0  0
   -7.1020    5.8090  -13.4950 O   0  0  0  0  0  0  0  0  0  0  0  0
   -8.7210    4.2500  -13.3120 N   0  0  0  0  0  0  0  0  0  0  0  0
  2  1  1  0
  3  2  2  0
  4  2  1  0
  5  4  2  0
  6  5  1  0
  7  6  1  1
  8  7  1  0
  9  8  1  0
 10  7  1  0
 10  9  1  0
 11  6  1  0
 12 11  2  0
 13  5  1  0
 13 12  1  0
 14 13  2  0
 14  3  1  0
 15 14  1  0
 16 15  2  0
 17 15  1  0
M  END
>  <smiles>  (251) 
NC(=O)c1cc(Cl)cc2c1cnn2C1CNC1

>  <inchikey>  (251) 
QKBLERPZCFIMLD-UHFFFAOYSA-N

>  <alias>  (251) 
Z4179a

$$$$
Z4194a
     RDKit          3D

 27 31  0  0  0  0  0  0  0  0999 V2000
   -6.6110    5.5080  -12.8890 O   0  0  0  0  0  0  0  0  0  0  0  0
   -7.4290    4.7480  -13.4040 C   0  0  0  0  0  0  0  0  0  0  0  0
   -7.4900    4.6010  -14.8890 C   0  0  0  0  0  0  0  0  0  0  0  0
   -6.3430    5.0400  -15.5400 C   0  0  0  0  0  0  0  0  0  0  0  0
   -6.2980    5.0620  -16.9280 C   0  0  0  0  0  0  0  0  0  0  0  0
   -5.3370    5.4690  -17.9130 C   0  0  0  0  0  0  0  0  0  0  0  0
   -3.9810    6.0780  -17.6780 C   0  0  2  0  0  0  0  0  0  0  0  0
   -3.7420    7.3230  -18.5520 C   0  0  0  0  0  0  0  0  0  0  0  0
   -2.3960    7.9820  -18.2680 C   0  0  0  0  0  0  0  0  0  0  0  0
   -1.4740    7.0930  -17.4960 N   0  0  0  0  0  0  0  0  0  0  0  0
   -1.4790    5.7060  -18.0240 C   0  0  0  0  0  0  0  0  0  0  0  0
   -2.8490    5.0560  -17.8710 C   0  0  0  0  0  0  0  0  0  0  0  0
   -5.8360    5.2700  -19.1270 N   0  0  0  0  0  0  0  0  0  0  0  0
   -7.0960    4.7570  -18.9620 N   0  0  0  0  0  0  0  0  0  0  0  0
   -7.4150    4.6190  -17.6520 C   0  0  0  0  0  0  0  0  0  0  0  0
   -8.5650    4.1590  -17.0130 C   0  0  0  0  0  0  0  0  0  0  0  0
   -8.5890    4.1540  -15.6280 C   0  0  0  0  0  0  0  0  0  0  0  0
   -8.3050    3.9990  -12.6920 N   0  0  0  0  0  0  0  0  0  0  0  0
   -8.4420    3.9720  -11.2800 C   0  0  0  0  0  0  0  0  0  0  0  0
   -8.7180    2.7790  -10.6190 C   0  0  0  0  0  0  0  0  0  0  0  0
   -8.8260    2.7560   -9.2310 C   0  0  0  0  0  0  0  0  0  0  0  0
   -9.1160    1.6030   -8.3160 C   0  0  0  0  0  0  0  0  0  0  0  0
   -8.7550    2.1850   -7.0240 N   0  0  0  0  0  0  0  0  0  0  0  0
   -8.8120    3.6530   -7.0310 C   0  0  0  0  0  0  0  0  0  0  0  0
   -8.6510    3.9220   -8.4990 C   0  0  0  0  0  0  0  0  0  0  0  0
   -8.3730    5.1120   -9.1590 C   0  0  0  0  0  0  0  0  0  0  0  0
   -8.2770    5.1410  -10.5410 C   0  0  0  0  0  0  0  0  0  0  0  0
  2  1  2  0
  3  2  1  0
  4  3  2  0
  5  4  1  0
  6  5  1  0
  7  6  1  6
  8  7  1  0
  9  8  1  0
 10  9  1  0
 11 10  1  0
 12 11  1  0
 12  7  1  0
 13  6  2  0
 14 13  1  0
 15 14  1  0
 15  5  2  0
 16 15  1  0
 17 16  2  0
 17  3  1  0
 18  2  1  0
 19 18  1  0
 20 19  2  0
 21 20  1  0
 22 21  1  0
 23 22  1  0
 24 23  1  0
 25 24  1  0
 25 21  2  0
 26 25  1  0
 27 19  1  0
 27 26  2  0
M  END
>  <smiles>  (252) 
O=C(Nc1ccc2c(c1)CNC2)c1ccc2[nH]nc(C3CCNCC3)c2c1

>  <inchikey>  (252) 
XEWRDFBLQPUWBB-UHFFFAOYSA-N

>  <alias>  (252) 
Z4194a

$$$$
Z4198a
     RDKit          3D

 23 26  0  0  0  0  0  0  0  0999 V2000
  -10.4100    3.8370  -18.2740 Cl  0  0  0  0  0  0  0  0  0  0  0  0
   -8.8670    4.1910  -17.5530 C   0  0  0  0  0  0  0  0  0  0  0  0
   -8.7770    4.3220  -16.1780 C   0  0  0  0  0  0  0  0  0  0  0  0
   -7.7840    4.4020  -18.3790 C   0  0  0  0  0  0  0  0  0  0  0  0
   -6.5810    4.7690  -17.7990 C   0  0  0  0  0  0  0  0  0  0  0  0
   -5.3470    4.9740  -18.3430 N   0  0  0  0  0  0  0  0  0  0  0  0
   -4.9670    4.8710  -19.7540 C   0  0  1  0  0  0  0  0  0  0  0  0
   -4.8680    6.1720  -20.5700 C   0  0  0  0  0  0  0  0  0  0  0  0
   -3.6620    5.5910  -21.2130 N   0  0  0  0  0  0  0  0  0  0  0  0
   -3.4760    4.6570  -20.0770 C   0  0  0  0  0  0  0  0  0  0  0  0
   -4.4210    5.2640  -17.3780 N   0  0  0  0  0  0  0  0  0  0  0  0
   -5.0660    5.2430  -16.2300 C   0  0  0  0  0  0  0  0  0  0  0  0
   -6.4380    4.9340  -16.4100 C   0  0  0  0  0  0  0  0  0  0  0  0
   -7.5650    4.7090  -15.6010 C   0  0  0  0  0  0  0  0  0  0  0  0
   -7.4850    4.9100  -14.1160 C   0  0  0  0  0  0  0  0  0  0  0  0
   -6.5900    5.5950  -13.6250 O   0  0  0  0  0  0  0  0  0  0  0  0
   -8.4110    4.2640  -13.3670 N   0  0  0  0  0  0  0  0  0  0  0  0
   -8.4920    4.2760  -11.9530 C   0  0  0  0  0  0  0  0  0  0  0  0
   -8.7530    3.1010  -11.2590 C   0  0  0  0  0  0  0  0  0  0  0  0
   -8.7920    3.1080   -9.8750 C   0  0  0  0  0  0  0  0  0  0  0  0
   -8.5640    4.2730   -9.1760 C   0  0  0  0  0  0  0  0  0  0  0  0
   -8.3040    5.4410   -9.8570 C   0  0  0  0  0  0  0  0  0  0  0  0
   -8.2750    5.4530  -11.2410 C   0  0  0  0  0  0  0  0  0  0  0  0
  2  1  1  0
  3  2  2  0
  4  2  1  0
  5  4  2  0
  6  5  1  0
  7  6  1  1
  8  7  1  0
  9  8  1  0
 10  7  1  0
 10  9  1  0
 11  6  1  0
 12 11  2  0
 13  5  1  0
 13 12  1  0
 14 13  2  0
 14  3  1  0
 15 14  1  0
 16 15  2  0
 17 15  1  0
 18 17  1  0
 19 18  2  0
 20 19  1  0
 21 20  2  0
 22 21  1  0
 23 18  1  0
 23 22  2  0
M  END
>  <smiles>  (253) 
O=C(Nc1ccccc1)c1cc(Cl)cc2c1cnn2C1CNC1

>  <inchikey>  (253) 
OWUBEEPQRDVFTM-UHFFFAOYSA-N

>  <alias>  (253) 
Z4198a

$$$$
Z4200a
     RDKit          3D

 31 36  0  0  0  0  0  0  0  0999 V2000
   -6.6950    5.3820  -13.3430 O   0  0  0  0  0  0  0  0  0  0  0  0
   -7.6460    4.7560  -13.8040 C   0  0  0  0  0  0  0  0  0  0  0  0
   -8.5550    4.1090  -13.0320 N   0  0  0  0  0  0  0  0  0  0  0  0
   -8.5870    4.0850  -11.6130 C   0  0  0  0  0  0  0  0  0  0  0  0
   -8.8740    2.9240  -10.8980 C   0  0  0  0  0  0  0  0  0  0  0  0
   -8.9120    2.9480   -9.5020 C   0  0  0  0  0  0  0  0  0  0  0  0
   -9.2600    1.8530   -8.5380 C   0  0  0  0  0  0  0  0  0  0  0  0
   -8.8490    2.4450   -7.2540 N   0  0  0  0  0  0  0  0  0  0  0  0
   -8.7400    3.9090   -7.3370 C   0  0  0  0  0  0  0  0  0  0  0  0
   -8.6620    4.1280   -8.8200 C   0  0  0  0  0  0  0  0  0  0  0  0
   -8.3800    5.2870   -9.5320 C   0  0  0  0  0  0  0  0  0  0  0  0
   -8.3420    5.2680  -10.9200 C   0  0  0  0  0  0  0  0  0  0  0  0
   -7.8300    4.6550  -15.2880 C   0  0  0  0  0  0  0  0  0  0  0  0
   -6.7760    4.9320  -16.1690 C   0  0  0  0  0  0  0  0  0  0  0  0
   -6.9490    4.8860  -17.5640 C   0  0  0  0  0  0  0  0  0  0  0  0
   -8.1920    4.5440  -18.0860 C   0  0  0  0  0  0  0  0  0  0  0  0
   -9.2430    4.2740  -17.2230 C   0  0  0  0  0  0  0  0  0  0  0  0
   -9.0660    4.3340  -15.8440 C   0  0  0  0  0  0  0  0  0  0  0  0
   -5.4930    5.2970  -15.9450 N   0  0  0  0  0  0  0  0  0  0  0  0
   -4.8190    5.5020  -17.1230 N   0  0  0  0  0  0  0  0  0  0  0  0
   -5.6660    5.2580  -18.0990 C   0  0  0  0  0  0  0  0  0  0  0  0
   -5.2640    5.3390  -19.5480 C   0  0  1  0  0  0  0  0  0  0  0  0
   -5.0720    6.7710  -20.1060 C   0  0  0  0  0  0  0  0  0  0  0  0
   -4.0260    6.1530  -20.9660 N   0  0  0  0  0  0  0  0  0  0  0  0
   -3.7580    5.1720  -19.8770 C   0  0  0  0  0  0  0  0  0  0  0  0
   -2.9240    6.9260  -21.5750 C   0  0  2  0  0  0  0  0  0  0  0  0
   -1.4610    6.5120  -21.4220 C   0  0  0  0  0  0  0  0  0  0  0  0
   -0.6750    7.0130  -22.6090 C   0  0  0  0  0  0  0  0  0  0  0  0
   -0.8370    8.4360  -22.7920 O   0  0  0  0  0  0  0  0  0  0  0  0
   -2.2100    8.8050  -23.0350 C   0  0  0  0  0  0  0  0  0  0  0  0
   -3.1080    8.4060  -21.8930 C   0  0  0  0  0  0  0  0  0  0  0  0
  2  1  2  0
  3  2  1  0
  4  3  1  0
  5  4  2  0
  6  5  1  0
  7  6  1  0
  8  7  1  0
  9  8  1  0
 10  9  1  0
 10  6  2  0
 11 10  1  0
 12  4  1  0
 12 11  2  0
 13  2  1  0
 14 13  2  0
 15 14  1  0
 16 15  2  0
 17 16  1  0
 18 17  2  0
 18 13  1  0
 19 14  1  0
 20 19  1  0
 21 15  1  0
 21 20  2  0
 22 21  1  1
 23 22  1  0
 24 23  1  0
 25 22  1  0
 25 24  1  0
 26 24  1  1
 27 26  1  0
 28 27  1  0
 29 28  1  0
 30 29  1  0
 31 30  1  0
 31 26  1  0
M  END
>  <smiles>  (254) 
O=C(Nc1ccc2c(c1)CNC2)c1cccc2c(C3CN(C4CCOCC4)C3)n[nH]c12

>  <inchikey>  (254) 
JWKIKMCWVDGUEX-UHFFFAOYSA-N

>  <alias>  (254) 
Z4200a

$$$$
Z4204a
     RDKit          3D

 28 32  0  0  0  0  0  0  0  0999 V2000
   -9.8010    3.6370  -18.0270 Cl  0  0  0  0  0  0  0  0  0  0  0  0
   -8.4470    4.1690  -17.0880 C   0  0  0  0  0  0  0  0  0  0  0  0
   -8.5060    4.1730  -15.7020 C   0  0  0  0  0  0  0  0  0  0  0  0
   -7.3110    4.6130  -17.7480 C   0  0  0  0  0  0  0  0  0  0  0  0
   -6.1870    5.0490  -17.0270 C   0  0  0  0  0  0  0  0  0  0  0  0
   -5.1940    5.4290  -18.0080 C   0  0  0  0  0  0  0  0  0  0  0  0
   -3.8250    6.0090  -17.7640 C   0  0  2  0  0  0  0  0  0  0  0  0
   -2.8630    5.1030  -16.9950 C   0  0  0  0  0  0  0  0  0  0  0  0
   -1.4410    5.6580  -17.0650 C   0  0  0  0  0  0  0  0  0  0  0  0
   -1.3950    7.0340  -17.6540 N   0  0  0  0  0  0  0  0  0  0  0  0
   -2.3970    7.9470  -17.0170 C   0  0  0  0  0  0  0  0  0  0  0  0
   -3.8230    7.4230  -17.1640 C   0  0  0  0  0  0  0  0  0  0  0  0
   -5.7620    5.2100  -19.2310 C   0  0  0  0  0  0  0  0  0  0  0  0
   -7.0300    4.7210  -19.0890 N   0  0  0  0  0  0  0  0  0  0  0  0
   -6.2440    5.0340  -15.6240 C   0  0  0  0  0  0  0  0  0  0  0  0
   -7.4050    4.6120  -14.9630 C   0  0  0  0  0  0  0  0  0  0  0  0
   -7.3850    4.7190  -13.4660 C   0  0  0  0  0  0  0  0  0  0  0  0
   -6.5530    5.4220  -12.8970 O   0  0  0  0  0  0  0  0  0  0  0  0
   -8.3000    3.9900  -12.7840 N   0  0  0  0  0  0  0  0  0  0  0  0
   -8.4290    3.9490  -11.3590 C   0  0  0  0  0  0  0  0  0  0  0  0
   -8.6420    2.7390  -10.7050 C   0  0  0  0  0  0  0  0  0  0  0  0
   -8.7350    2.7010   -9.3110 C   0  0  0  0  0  0  0  0  0  0  0  0
   -9.0860    1.5510   -8.4140 C   0  0  0  0  0  0  0  0  0  0  0  0
   -8.7380    2.1030   -7.0810 N   0  0  0  0  0  0  0  0  0  0  0  0
   -8.6900    3.5780   -7.1010 C   0  0  0  0  0  0  0  0  0  0  0  0
   -8.5790    3.8660   -8.5690 C   0  0  0  0  0  0  0  0  0  0  0  0
   -8.3710    5.0760   -9.2250 C   0  0  0  0  0  0  0  0  0  0  0  0
   -8.3050    5.1200  -10.6110 C   0  0  0  0  0  0  0  0  0  0  0  0
  2  1  1  0
  3  2  2  0
  4  2  1  0
  5  4  2  0
  6  5  1  0
  7  6  1  1
  8  7  1  0
  9  8  1  0
 10  9  1  0
 11 10  1  0
 12 11  1  0
 12  7  1  0
 13  6  2  0
 14 13  1  0
 14  4  1  0
 15  5  1  0
 16 15  2  0
 16  3  1  0
 17 16  1  0
 18 17  2  0
 19 17  1  0
 20 19  1  0
 21 20  2  0
 22 21  1  0
 23 22  1  0
 24 23  1  0
 25 24  1  0
 26 25  1  0
 26 22  2  0
 27 26  1  0
 28 20  1  0
 28 27  2  0
M  END
>  <smiles>  (255) 
O=C(Nc1ccc2c(c1)CNC2)c1cc(Cl)c2[nH]cc(C3CCNCC3)c2c1

>  <inchikey>  (255) 
FOXOYKNZORPOPR-UHFFFAOYSA-N

>  <alias>  (255) 
Z4204a

$$$$
Z4206a
     RDKit          3D

 26 30  0  0  0  0  0  0  0  0999 V2000
  -10.2590    3.6470  -18.3000 Br  0  0  0  0  0  0  0  0  0  0  0  0
   -8.6690    4.0900  -17.3530 C   0  0  0  0  0  0  0  0  0  0  0  0
   -8.6830    4.1290  -15.9570 C   0  0  0  0  0  0  0  0  0  0  0  0
   -7.5400    4.3970  -18.0810 C   0  0  0  0  0  0  0  0  0  0  0  0
   -6.3810    4.7450  -17.3890 C   0  0  0  0  0  0  0  0  0  0  0  0
   -6.3400    4.8040  -15.9830 C   0  0  0  0  0  0  0  0  0  0  0  0
   -4.9760    5.1360  -15.6810 C   0  0  0  0  0  0  0  0  0  0  0  0
   -4.3400    5.2190  -16.8590 N   0  0  0  0  0  0  0  0  0  0  0  0
   -2.8800    5.4060  -17.0470 C   0  0  2  0  0  0  0  0  0  0  0  0
   -2.4200    6.8680  -16.8830 C   0  0  0  0  0  0  0  0  0  0  0  0
   -2.5330    7.0090  -18.3530 N   0  0  0  0  0  0  0  0  0  0  0  0
   -2.3580    5.5420  -18.4940 C   0  0  0  0  0  0  0  0  0  0  0  0
   -5.1520    5.0090  -17.9410 N   0  0  0  0  0  0  0  0  0  0  0  0
   -7.5150    4.4940  -15.2630 C   0  0  0  0  0  0  0  0  0  0  0  0
   -7.4730    4.6180  -13.7560 C   0  0  0  0  0  0  0  0  0  0  0  0
   -6.5990    5.3010  -13.2300 O   0  0  0  0  0  0  0  0  0  0  0  0
   -8.3920    3.9300  -13.0160 N   0  0  0  0  0  0  0  0  0  0  0  0
   -8.4770    3.9090  -11.5800 C   0  0  0  0  0  0  0  0  0  0  0  0
   -8.6710    2.7200  -10.8700 C   0  0  0  0  0  0  0  0  0  0  0  0
   -8.7100    2.7320   -9.4720 C   0  0  0  0  0  0  0  0  0  0  0  0
   -9.0150    1.6140   -8.5190 C   0  0  0  0  0  0  0  0  0  0  0  0
   -8.6650    2.2040   -7.2080 N   0  0  0  0  0  0  0  0  0  0  0  0
   -8.5410    3.6770   -7.2980 C   0  0  0  0  0  0  0  0  0  0  0  0
   -8.5290    3.9210   -8.7780 C   0  0  0  0  0  0  0  0  0  0  0  0
   -8.3450    5.1040   -9.4850 C   0  0  0  0  0  0  0  0  0  0  0  0
   -8.3170    5.1020  -10.8730 C   0  0  0  0  0  0  0  0  0  0  0  0
  2  1  1  0
  3  2  1  0
  4  2  2  0
  5  4  1  0
  6  5  1  0
  7  6  2  0
  8  7  1  0
  9  8  1  6
 10  9  1  0
 11 10  1  0
 12  9  1  0
 12 11  1  0
 13  5  2  0
 13  8  1  0
 14  6  1  0
 14  3  2  0
 15 14  1  0
 16 15  2  0
 17 15  1  0
 18 17  1  0
 19 18  2  0
 20 19  1  0
 21 20  1  0
 22 21  1  0
 23 22  1  0
 24 23  1  0
 24 20  2  0
 25 24  1  0
 26 18  1  0
 26 25  2  0
M  END
>  <smiles>  (256) 
O=C(Nc1ccc2c(c1)CNC2)c1cc(Br)cc2nn(C3CNC3)cc12

>  <inchikey>  (256) 
XGVHCDWCHRDRGB-UHFFFAOYSA-N

>  <alias>  (256) 
Z4206a

$$$$
Z4227a
     RDKit          3D

 28 32  0  0  0  0  0  0  0  0999 V2000
   -6.2600    4.0990  -20.8530 O   0  0  0  0  0  0  0  0  0  0  0  0
   -6.6640    4.2340  -19.7050 C   0  0  0  0  0  0  0  0  0  0  0  0
   -7.9460    4.0900  -19.2900 N   0  0  0  0  0  0  0  0  0  0  0  0
   -8.0710    4.2470  -17.9080 C   0  0  0  0  0  0  0  0  0  0  0  0
   -9.1930    4.1050  -17.0990 C   0  0  0  0  0  0  0  0  0  0  0  0
   -9.0530    4.2440  -15.7280 C   0  0  0  0  0  0  0  0  0  0  0  0
   -5.8130    4.5650  -18.4810 C   0  0  1  0  0  0  0  0  0  0  0  0
   -4.9650    5.8330  -18.7380 C   0  0  2  0  0  0  0  0  0  0  0  0
   -3.8560    6.0360  -17.7020 C   0  0  0  0  0  0  0  0  0  0  0  0
   -2.9890    7.2330  -18.0710 C   0  0  0  0  0  0  0  0  0  0  0  0
   -3.8170    8.4670  -18.2570 N   0  0  0  0  0  0  0  0  0  0  0  0
   -4.9330    8.2810  -19.2430 C   0  0  0  0  0  0  0  0  0  0  0  0
   -5.8120    7.1030  -18.8450 C   0  0  0  0  0  0  0  0  0  0  0  0
   -6.8200    4.5320  -17.3610 C   0  0  0  0  0  0  0  0  0  0  0  0
   -6.7000    4.6620  -15.9810 C   0  0  0  0  0  0  0  0  0  0  0  0
   -7.8130    4.5180  -15.1600 C   0  0  0  0  0  0  0  0  0  0  0  0
   -7.6300    4.6770  -13.6850 C   0  0  0  0  0  0  0  0  0  0  0  0
   -6.6810    5.3190  -13.2380 O   0  0  0  0  0  0  0  0  0  0  0  0
   -8.5570    4.0700  -12.9030 N   0  0  0  0  0  0  0  0  0  0  0  0
   -8.6130    4.0710  -11.4810 C   0  0  0  0  0  0  0  0  0  0  0  0
   -8.8960    2.8950  -10.7850 C   0  0  0  0  0  0  0  0  0  0  0  0
   -8.9330    2.8980   -9.3920 C   0  0  0  0  0  0  0  0  0  0  0  0
   -9.2180    1.7720   -8.4430 C   0  0  0  0  0  0  0  0  0  0  0  0
   -8.7920    2.3510   -7.1720 N   0  0  0  0  0  0  0  0  0  0  0  0
   -8.7460    3.8240   -7.2120 C   0  0  0  0  0  0  0  0  0  0  0  0
   -8.6850    4.0720   -8.6900 C   0  0  0  0  0  0  0  0  0  0  0  0
   -8.4040    5.2430   -9.3860 C   0  0  0  0  0  0  0  0  0  0  0  0
   -8.3660    5.2440  -10.7710 C   0  0  0  0  0  0  0  0  0  0  0  0
  2  1  2  0
  3  2  1  0
  4  3  1  0
  5  4  2  0
  6  5  1  0
  7  2  1  6
  8  7  1  0
  8  9  1  1
 10  9  1  0
 11 10  1  0
 12 11  1  0
 13 12  1  0
 13  8  1  0
 14  7  1  0
 14  4  1  0
 15 14  2  0
 16 15  1  0
 16  6  2  0
 17 16  1  0
 18 17  2  0
 19 17  1  0
 20 19  1  0
 21 20  2  0
 22 21  1  0
 23 22  1  0
 24 23  1  0
 25 24  1  0
 26 25  1  0
 26 22  2  0
 27 26  1  0
 28 20  1  0
 28 27  2  0
M  END
>  <smiles>  (257) 
O=C(Nc1ccc2c(c1)CNC2)c1ccc2c(c1)[C@H](C1CCNCC1)C(=O)N2

>  <inchikey>  (257) 
FWAYKELDFPCUCX-FQEVSTJZSA-N

>  <alias>  (257) 
Z4227a

$$$$
Z4240a
     RDKit          3D

 29 32  0  0  0  0  0  0  0  0999 V2000
  -10.5100    3.9380  -18.0840 Cl  0  0  0  0  0  0  0  0  0  0  0  0
   -8.9810    4.2580  -17.3120 C   0  0  0  0  0  0  0  0  0  0  0  0
   -8.8850    4.1720  -15.9300 C   0  0  0  0  0  0  0  0  0  0  0  0
   -7.9240    4.6240  -18.0840 C   0  0  0  0  0  0  0  0  0  0  0  0
   -6.6940    4.9320  -17.4700 C   0  0  0  0  0  0  0  0  0  0  0  0
   -6.5670    4.8760  -16.0610 C   0  0  0  0  0  0  0  0  0  0  0  0
   -5.3770    5.1090  -15.4290 N   0  0  0  0  0  0  0  0  0  0  0  0
   -4.3180    5.3480  -16.1860 C   0  0  0  0  0  0  0  0  0  0  0  0
   -4.3390    5.3970  -17.5740 C   0  0  0  0  0  0  0  0  0  0  0  0
   -5.5260    5.2130  -18.2170 C   0  0  0  0  0  0  0  0  0  0  0  0
   -7.7000    4.4670  -15.2930 C   0  0  0  0  0  0  0  0  0  0  0  0
   -7.5340    4.2850  -13.7780 C   0  0  2  0  0  0  0  0  0  0  0  0
   -6.6920    3.0400  -13.4790 C   0  0  0  0  0  0  0  0  0  0  0  0
   -5.5140    3.2950  -12.9080 N   0  0  0  0  0  0  0  0  0  0  0  0
   -4.6300    2.2410  -12.4380 C   0  0  0  0  0  0  0  0  0  0  0  0
   -3.4210    2.0870  -13.4390 C   0  0  2  0  0  0  0  0  0  0  0  0
   -2.7800    3.2850  -13.5240 F   0  0  0  0  0  0  0  0  0  0  0  0
   -3.8950    1.8360  -14.6890 F   0  0  0  0  0  0  0  0  0  0  0  0
   -7.0970    1.9020  -13.7130 O   0  0  0  0  0  0  0  0  0  0  0  0
   -8.7250    4.1910  -12.9590 N   0  0  0  0  0  0  0  0  0  0  0  0
   -8.6230    4.2000  -11.5620 C   0  0  0  0  0  0  0  0  0  0  0  0
   -8.9160    3.0410  -10.8420 C   0  0  0  0  0  0  0  0  0  0  0  0
   -8.8530    3.0410   -9.4520 C   0  0  0  0  0  0  0  0  0  0  0  0
   -9.1760    1.9380   -8.4890 C   0  0  0  0  0  0  0  0  0  0  0  0
   -8.8250    2.5290   -7.1920 N   0  0  0  0  0  0  0  0  0  0  0  0
   -8.5080    3.9610   -7.2890 C   0  0  0  0  0  0  0  0  0  0  0  0
   -8.4930    4.1970   -8.7700 C   0  0  0  0  0  0  0  0  0  0  0  0
   -8.2010    5.3570   -9.4880 C   0  0  0  0  0  0  0  0  0  0  0  0
   -8.2620    5.3600  -10.8730 C   0  0  0  0  0  0  0  0  0  0  0  0
  2  1  1  0
  3  2  2  0
  4  2  1  0
  5  4  2  0
  6  5  1  0
  7  6  1  0
  8  7  2  0
  9  8  1  0
 10  5  1  0
 10  9  2  0
 11  6  2  0
 11  3  1  0
 12 11  1  0
 13 12  1  0
 14 13  1  0
 15 14  1  0
 16 15  1  0
 16 17  1  6
 18 16  1  0
 19 13  2  0
 12 20  1  1
 21 20  1  0
 22 21  2  0
 23 22  1  0
 24 23  1  0
 25 24  1  0
 26 25  1  0
 27 26  1  0
 27 23  2  0
 28 27  1  0
 29 21  1  0
 29 28  2  0
M  END
>  <smiles>  (258) 
O=C(NCC(F)F)[C@H](Nc1ccc2c(c1)CNC2)c1cc(Cl)cc2cccnc12

>  <inchikey>  (258) 
NANHWVFEXBOZDY-HXUWFJFHSA-N

>  <alias>  (258) 
Z4240a

$$$$
Z4243a
     RDKit          3D

 28 32  0  0  0  0  0  0  0  0999 V2000
   -6.5460    5.1610  -13.0820 O   0  0  0  0  0  0  0  0  0  0  0  0
   -7.4790    4.5420  -13.5930 C   0  0  0  0  0  0  0  0  0  0  0  0
   -8.4260    3.9100  -12.8530 N   0  0  0  0  0  0  0  0  0  0  0  0
   -8.4860    3.8920  -11.4240 C   0  0  0  0  0  0  0  0  0  0  0  0
   -8.7240    2.7050  -10.7340 C   0  0  0  0  0  0  0  0  0  0  0  0
   -8.7460    2.6950   -9.3400 C   0  0  0  0  0  0  0  0  0  0  0  0
   -8.9830    1.5470   -8.4030 C   0  0  0  0  0  0  0  0  0  0  0  0
   -8.7450    2.1610   -7.0860 N   0  0  0  0  0  0  0  0  0  0  0  0
   -8.6590    3.6250   -7.1550 C   0  0  0  0  0  0  0  0  0  0  0  0
   -8.5370    3.8690   -8.6300 C   0  0  0  0  0  0  0  0  0  0  0  0
   -8.2960    5.0540   -9.3180 C   0  0  0  0  0  0  0  0  0  0  0  0
   -8.2680    5.0670  -10.7050 C   0  0  0  0  0  0  0  0  0  0  0  0
   -7.5770    4.4370  -15.0890 C   0  0  0  0  0  0  0  0  0  0  0  0
   -8.7700    4.1190  -15.7380 C   0  0  0  0  0  0  0  0  0  0  0  0
   -8.8580    4.1170  -17.1280 C   0  0  0  0  0  0  0  0  0  0  0  0
   -7.7590    4.4390  -17.9150 C   0  0  0  0  0  0  0  0  0  0  0  0
   -6.5460    4.7430  -17.3010 C   0  0  0  0  0  0  0  0  0  0  0  0
   -6.4660    4.7300  -15.8940 C   0  0  0  0  0  0  0  0  0  0  0  0
   -5.1750    4.9820  -15.5700 N   0  0  0  0  0  0  0  0  0  0  0  0
   -4.4020    5.1550  -16.6890 N   0  0  0  0  0  0  0  0  0  0  0  0
   -5.2010    5.0240  -17.7360 C   0  0  0  0  0  0  0  0  0  0  0  0
   -4.7070    5.1930  -19.1480 C   0  0  2  0  0  0  0  0  0  0  0  0
   -3.1830    5.0230  -19.2890 C   0  0  0  0  0  0  0  0  0  0  0  0
   -2.7800    5.2050  -20.7580 C   0  0  0  0  0  0  0  0  0  0  0  0
   -5.1390    6.5360  -19.7390 C   0  0  0  0  0  0  0  0  0  0  0  0
   -4.6470    6.6430  -21.1840 C   0  0  0  0  0  0  0  0  0  0  0  0
   -3.1900    6.5170  -21.2600 N   0  0  0  0  0  0  0  0  0  0  0  0
   -2.7250    6.7120  -22.6430 C   0  0  0  0  0  0  0  0  0  0  0  0
  2  1  2  0
  3  2  1  0
  4  3  1  0
  5  4  2  0
  6  5  1  0
  7  6  1  0
  8  7  1  0
  9  8  1  0
 10  9  1  0
 10  6  2  0
 11 10  1  0
 12  4  1  0
 12 11  2  0
 13  2  1  0
 14 13  2  0
 15 14  1  0
 16 15  2  0
 17 16  1  0
 18 17  2  0
 18 13  1  0
 19 18  1  0
 20 19  1  0
 21 17  1  0
 21 20  2  0
 22 21  1  1
 23 22  1  0
 24 23  1  0
 25 22  1  0
 26 25  1  0
 27 24  1  0
 27 26  1  0
 28 27  1  0
M  END
>  <smiles>  (259) 
CN1CCC(c2n[nH]c3c(C(=O)Nc4ccc5c(c4)CNC5)cccc23)CC1

>  <inchikey>  (259) 
NUVVQXRBTKZDRC-UHFFFAOYSA-N

>  <alias>  (259) 
Z4243a

$$$$
Z4245a
     RDKit          3D

 22 25  0  0  0  0  0  0  0  0999 V2000
   -5.9660    4.2850  -20.7270 O   0  0  0  0  0  0  0  0  0  0  0  0
   -6.4930    4.3590  -19.6180 C   0  0  0  0  0  0  0  0  0  0  0  0
   -7.7800    4.0170  -19.2950 N   0  0  0  0  0  0  0  0  0  0  0  0
   -5.8890    4.7180  -18.4370 N   0  0  0  0  0  0  0  0  0  0  0  0
   -6.7730    4.5770  -17.3800 C   0  0  0  0  0  0  0  0  0  0  0  0
   -7.9800    4.1440  -17.9240 C   0  0  0  0  0  0  0  0  0  0  0  0
   -9.0750    3.8770  -17.1120 C   0  0  0  0  0  0  0  0  0  0  0  0
   -8.9300    4.0300  -15.7410 C   0  0  0  0  0  0  0  0  0  0  0  0
   -6.6290    4.7330  -16.0040 C   0  0  0  0  0  0  0  0  0  0  0  0
   -7.7200    4.4530  -15.1810 C   0  0  0  0  0  0  0  0  0  0  0  0
   -7.5580    4.6050  -13.7010 C   0  0  0  0  0  0  0  0  0  0  0  0
   -6.6250    5.2520  -13.2340 O   0  0  0  0  0  0  0  0  0  0  0  0
   -8.4820    3.9930  -12.9210 N   0  0  0  0  0  0  0  0  0  0  0  0
   -8.5230    4.0160  -11.4970 C   0  0  0  0  0  0  0  0  0  0  0  0
   -8.8570    2.8630  -10.7900 C   0  0  0  0  0  0  0  0  0  0  0  0
   -8.8930    2.8780   -9.3990 C   0  0  0  0  0  0  0  0  0  0  0  0
   -9.1730    1.7560   -8.4440 C   0  0  0  0  0  0  0  0  0  0  0  0
   -8.7930    2.3620   -7.1550 N   0  0  0  0  0  0  0  0  0  0  0  0
   -8.7040    3.8210   -7.2270 C   0  0  0  0  0  0  0  0  0  0  0  0
   -8.6140    4.0490   -8.7060 C   0  0  0  0  0  0  0  0  0  0  0  0
   -8.2840    5.2010   -9.4110 C   0  0  0  0  0  0  0  0  0  0  0  0
   -8.2320    5.1850  -10.7970 C   0  0  0  0  0  0  0  0  0  0  0  0
  2  1  2  0
  3  2  1  0
  4  2  1  0
  5  4  1  0
  6  5  2  0
  6  3  1  0
  7  6  1  0
  8  7  2  0
  9  5  1  0
 10  9  2  0
 10  8  1  0
 11 10  1  0
 12 11  2  0
 13 11  1  0
 14 13  1  0
 15 14  2  0
 16 15  1  0
 17 16  1  0
 18 17  1  0
 19 18  1  0
 20 19  1  0
 20 16  2  0
 21 20  1  0
 22 14  1  0
 22 21  2  0
M  END
>  <smiles>  (260) 
O=C(Nc1ccc2c(c1)CNC2)c1ccc2[nH]c(=O)[nH]c2c1

>  <inchikey>  (260) 
GTSIYSOTZNGSFP-UHFFFAOYSA-N

>  <alias>  (260) 
Z4245a

$$$$
Z4429a
     RDKit          3D

 28 30  0  0  0  0  0  0  0  0999 V2000
   -5.3450    5.6840  -18.8780 F   0  0  0  0  0  0  0  0  0  0  0  0
   -5.3350    5.6290  -17.5350 C   0  0  1  0  0  0  0  0  0  0  0  0
   -4.3280    4.8230  -17.1970 F   0  0  0  0  0  0  0  0  0  0  0  0
   -5.0290    6.8400  -17.0410 F   0  0  0  0  0  0  0  0  0  0  0  0
   -6.6370    5.1310  -16.9770 C   0  0  0  0  0  0  0  0  0  0  0  0
   -7.7050    4.8290  -17.8070 C   0  0  0  0  0  0  0  0  0  0  0  0
   -8.8350    4.3460  -17.1900 C   0  0  0  0  0  0  0  0  0  0  0  0
  -10.2370    3.9890  -18.1620 Cl  0  0  0  0  0  0  0  0  0  0  0  0
   -8.8870    4.1560  -15.8160 C   0  0  0  0  0  0  0  0  0  0  0  0
   -6.6440    4.9820  -15.6480 N   0  0  0  0  0  0  0  0  0  0  0  0
   -7.7450    4.4830  -15.0750 C   0  0  0  0  0  0  0  0  0  0  0  0
   -7.5950    4.2390  -13.5810 C   0  0  2  0  0  0  0  0  0  0  0  0
   -6.7650    2.9470  -13.3610 C   0  0  0  0  0  0  0  0  0  0  0  0
   -7.1430    1.8440  -13.7480 O   0  0  0  0  0  0  0  0  0  0  0  0
   -5.6180    3.1380  -12.7030 N   0  0  0  0  0  0  0  0  0  0  0  0
   -4.4130    2.3460  -12.9540 C   0  0  1  0  0  0  0  0  0  0  0  0
   -3.7100    2.8550  -14.1900 C   0  0  0  0  0  0  0  0  0  0  0  0
   -3.5160    2.3890  -11.7380 C   0  0  0  0  0  0  0  0  0  0  0  0
   -8.7430    4.3150  -12.7070 N   0  0  0  0  0  0  0  0  0  0  0  0
   -8.5640    4.2510  -11.3240 C   0  0  0  0  0  0  0  0  0  0  0  0
   -8.8660    3.0720  -10.6480 C   0  0  0  0  0  0  0  0  0  0  0  0
   -8.8720    3.0440   -9.2590 C   0  0  0  0  0  0  0  0  0  0  0  0
   -9.2200    1.9170   -8.3320 C   0  0  0  0  0  0  0  0  0  0  0  0
   -9.0170    2.5180   -7.0200 N   0  0  0  0  0  0  0  0  0  0  0  0
   -8.7320    3.9510   -7.0670 C   0  0  0  0  0  0  0  0  0  0  0  0
   -8.5510    4.1860   -8.5380 C   0  0  0  0  0  0  0  0  0  0  0  0
   -8.1890    5.3470   -9.2150 C   0  0  0  0  0  0  0  0  0  0  0  0
   -8.1910    5.3800  -10.5990 C   0  0  0  0  0  0  0  0  0  0  0  0
  2  1  1  6
  3  2  1  0
  4  2  1  0
  5  2  1  0
  6  5  2  0
  7  6  1  0
  8  7  1  0
  9  7  2  0
 10  5  1  0
 11 10  2  0
 11  9  1  0
 12 11  1  0
 13 12  1  0
 14 13  2  0
 15 13  1  0
 16 15  1  0
 16 17  1  6
 18 16  1  0
 12 19  1  6
 20 19  1  0
 21 20  2  0
 22 21  1  0
 23 22  1  0
 24 23  1  0
 25 24  1  0
 26 25  1  0
 26 22  2  0
 27 26  1  0
 28 20  1  0
 28 27  2  0
M  END
>  <smiles>  (261) 
CC(C)NC(=O)[C@H](Nc1ccc2c(c1)CNC2)c1cc(Cl)cc(C(F)(F)F)n1

>  <inchikey>  (261) 
JBVFAKPDTJJPDG-QGZVFWFLSA-N

>  <alias>  (261) 
Z4429a

$$$$
Z4469a
     RDKit          3D

 29 33  0  0  0  0  0  0  0  0999 V2000
  -10.0510    3.9200  -17.8990 Cl  0  0  0  0  0  0  0  0  0  0  0  0
   -8.6200    4.3200  -17.0000 C   0  0  0  0  0  0  0  0  0  0  0  0
   -8.6560    4.3270  -15.6150 C   0  0  0  0  0  0  0  0  0  0  0  0
   -7.4430    4.6130  -17.6830 C   0  0  0  0  0  0  0  0  0  0  0  0
   -6.2760    4.9120  -16.9610 C   0  0  0  0  0  0  0  0  0  0  0  0
   -5.2790    5.1260  -17.9720 C   0  0  0  0  0  0  0  0  0  0  0  0
   -3.8100    5.3950  -17.7680 C   0  0  0  0  0  0  0  0  0  0  0  0
   -3.5290    6.8150  -17.2900 C   0  0  2  0  0  0  0  0  0  0  0  0
   -4.0100    7.8560  -18.3070 C   0  0  0  0  0  0  0  0  0  0  0  0
   -3.7440    9.2620  -17.7910 C   0  0  0  0  0  0  0  0  0  0  0  0
   -2.3100    9.4520  -17.4770 N   0  0  0  0  0  0  0  0  0  0  0  0
   -1.8320    8.4510  -16.4910 C   0  0  0  0  0  0  0  0  0  0  0  0
   -2.0430    7.0300  -16.9960 C   0  0  0  0  0  0  0  0  0  0  0  0
   -5.7990    5.0070  -19.1660 N   0  0  0  0  0  0  0  0  0  0  0  0
   -7.1190    4.6860  -18.9940 N   0  0  0  0  0  0  0  0  0  0  0  0
   -6.3220    4.9390  -15.5650 C   0  0  0  0  0  0  0  0  0  0  0  0
   -7.5040    4.6400  -14.8910 C   0  0  0  0  0  0  0  0  0  0  0  0
   -7.4370    4.6960  -13.3990 C   0  0  0  0  0  0  0  0  0  0  0  0
   -6.5610    5.3490  -12.8350 O   0  0  0  0  0  0  0  0  0  0  0  0
   -8.3750    3.9840  -12.7320 N   0  0  0  0  0  0  0  0  0  0  0  0
   -8.5030    3.8910  -11.3220 C   0  0  0  0  0  0  0  0  0  0  0  0
   -8.7380    2.6880  -10.6540 C   0  0  0  0  0  0  0  0  0  0  0  0
   -8.8260    2.6670   -9.2620 C   0  0  0  0  0  0  0  0  0  0  0  0
   -9.1180    1.5320   -8.3240 C   0  0  0  0  0  0  0  0  0  0  0  0
   -8.8100    2.1180   -7.0260 N   0  0  0  0  0  0  0  0  0  0  0  0
   -8.7870    3.5760   -7.0700 C   0  0  0  0  0  0  0  0  0  0  0  0
   -8.6680    3.8460   -8.5430 C   0  0  0  0  0  0  0  0  0  0  0  0
   -8.4330    5.0420   -9.2120 C   0  0  0  0  0  0  0  0  0  0  0  0
   -8.3530    5.0660  -10.5910 C   0  0  0  0  0  0  0  0  0  0  0  0
  2  1  1  0
  3  2  2  0
  4  2  1  0
  5  4  2  0
  6  5  1  0
  7  6  1  0
  8  7  1  6
  9  8  1  0
 10  9  1  0
 11 10  1  0
 12 11  1  0
 13 12  1  0
 13  8  1  0
 14  6  2  0
 15 14  1  0
 15  4  1  0
 16  5  1  0
 17 16  2  0
 17  3  1  0
 18 17  1  0
 19 18  2  0
 20 18  1  0
 21 20  1  0
 22 21  2  0
 23 22  1  0
 24 23  1  0
 25 24  1  0
 26 25  1  0
 27 26  1  0
 27 23  2  0
 28 27  1  0
 29 21  1  0
 29 28  2  0
M  END
>  <smiles>  (262) 
O=C(Nc1ccc2c(c1)CNC2)c1cc(Cl)c2[nH]nc(CC3CCNCC3)c2c1

>  <inchikey>  (262) 
KNPJGTVOUOTEPV-UHFFFAOYSA-N

>  <alias>  (262) 
Z4469a

$$$$
Z4478a
     RDKit          3D

 26 30  0  0  0  0  0  0  0  0999 V2000
   -6.7500    5.6300  -12.9660 O   0  0  0  0  0  0  0  0  0  0  0  0
   -7.5260    4.7990  -13.4310 C   0  0  0  0  0  0  0  0  0  0  0  0
   -7.6700    4.6430  -14.9100 C   0  0  0  0  0  0  0  0  0  0  0  0
   -8.8650    4.3080  -15.5520 C   0  0  0  0  0  0  0  0  0  0  0  0
   -8.9640    4.3160  -16.9350 C   0  0  0  0  0  0  0  0  0  0  0  0
   -6.5410    4.9530  -15.6630 C   0  0  0  0  0  0  0  0  0  0  0  0
   -6.6090    4.9500  -17.0540 C   0  0  0  0  0  0  0  0  0  0  0  0
   -7.8340    4.6440  -17.6740 C   0  0  0  0  0  0  0  0  0  0  0  0
   -7.6370    4.7070  -19.0310 N   0  0  0  0  0  0  0  0  0  0  0  0
   -6.3270    5.0230  -19.2760 C   0  0  0  0  0  0  0  0  0  0  0  0
   -5.6480    5.1640  -18.1010 C   0  0  0  0  0  0  0  0  0  0  0  0
   -4.1670    5.3480  -17.9140 C   0  0  1  0  0  0  0  0  0  0  0  0
   -3.4550    6.1510  -19.0280 C   0  0  0  0  0  0  0  0  0  0  0  0
   -3.7240    6.4570  -16.9280 C   0  0  0  0  0  0  0  0  0  0  0  0
   -2.7650    6.9300  -17.9630 N   0  0  0  0  0  0  0  0  0  0  0  0
   -1.3480    6.6140  -17.7340 C   0  0  0  0  0  0  0  0  0  0  0  0
   -8.2950    3.9820  -12.6670 N   0  0  0  0  0  0  0  0  0  0  0  0
   -8.3710    3.9770  -11.2500 C   0  0  0  0  0  0  0  0  0  0  0  0
   -8.6660    2.8140  -10.5360 C   0  0  0  0  0  0  0  0  0  0  0  0
   -8.7410    2.8460   -9.1430 C   0  0  0  0  0  0  0  0  0  0  0  0
   -9.0660    1.7510   -8.1690 C   0  0  0  0  0  0  0  0  0  0  0  0
   -8.8420    2.3960   -6.8810 N   0  0  0  0  0  0  0  0  0  0  0  0
   -8.6440    3.8350   -6.9850 C   0  0  0  0  0  0  0  0  0  0  0  0
   -8.5150    4.0400   -8.4660 C   0  0  0  0  0  0  0  0  0  0  0  0
   -8.2250    5.1980   -9.1800 C   0  0  0  0  0  0  0  0  0  0  0  0
   -8.1530    5.1680  -10.5610 C   0  0  0  0  0  0  0  0  0  0  0  0
  2  1  2  0
  3  2  1  0
  4  3  2  0
  5  4  1  0
  6  3  1  0
  7  6  2  0
  8  7  1  0
  8  5  2  0
  9  8  1  0
 10  9  1  0
 11 10  2  0
 11  7  1  0
 12 11  1  6
 13 12  1  0
 14 12  1  0
 15 14  1  0
 15 13  1  0
 16 15  1  0
 17  2  1  0
 18 17  1  0
 19 18  2  0
 20 19  1  0
 21 20  1  0
 22 21  1  0
 23 22  1  0
 24 23  1  0
 24 20  2  0
 25 24  1  0
 26 18  1  0
 26 25  2  0
M  END
>  <smiles>  (263) 
CN1CC(c2c[nH]c3ccc(C(=O)Nc4ccc5c(c4)CNC5)cc23)C1

>  <inchikey>  (263) 
ABRPUQRFDWPXLM-UHFFFAOYSA-N

>  <alias>  (263) 
Z4478a

$$$$
Z4498a
     RDKit          3D

 27 31  0  0  0  0  0  0  0  0999 V2000
   -9.7400    3.7640  -17.9090 Cl  0  0  0  0  0  0  0  0  0  0  0  0
   -8.4030    4.3380  -16.9660 C   0  0  0  0  0  0  0  0  0  0  0  0
   -8.4850    4.3390  -15.5850 C   0  0  0  0  0  0  0  0  0  0  0  0
   -7.2260    4.7150  -17.6090 C   0  0  0  0  0  0  0  0  0  0  0  0
   -6.0960    5.0520  -16.8480 C   0  0  0  0  0  0  0  0  0  0  0  0
   -5.0720    5.2920  -17.8200 C   0  0  0  0  0  0  0  0  0  0  0  0
   -3.6010    5.4390  -17.5350 C   0  0  0  0  0  0  0  0  0  0  0  0
   -2.9730    6.6900  -18.1120 C   0  0  1  0  0  0  0  0  0  0  0  0
   -1.6760    7.0070  -17.3280 C   0  0  0  0  0  0  0  0  0  0  0  0
   -0.9290    6.3010  -18.3930 N   0  0  0  0  0  0  0  0  0  0  0  0
   -2.0720    6.3770  -19.3330 C   0  0  0  0  0  0  0  0  0  0  0  0
   -5.5480    5.1770  -19.0340 N   0  0  0  0  0  0  0  0  0  0  0  0
   -6.8610    4.8160  -18.9090 N   0  0  0  0  0  0  0  0  0  0  0  0
   -6.1870    5.0590  -15.4580 C   0  0  0  0  0  0  0  0  0  0  0  0
   -7.3770    4.7140  -14.8250 C   0  0  0  0  0  0  0  0  0  0  0  0
   -7.3430    4.8360  -13.3370 C   0  0  0  0  0  0  0  0  0  0  0  0
   -6.5670    5.6210  -12.7950 O   0  0  0  0  0  0  0  0  0  0  0  0
   -8.2030    4.0400  -12.6540 N   0  0  0  0  0  0  0  0  0  0  0  0
   -8.3900    4.0080  -11.2520 C   0  0  0  0  0  0  0  0  0  0  0  0
   -8.6740    2.8120  -10.5990 C   0  0  0  0  0  0  0  0  0  0  0  0
   -8.8070    2.7830   -9.2110 C   0  0  0  0  0  0  0  0  0  0  0  0
   -9.1430    1.6420   -8.2970 C   0  0  0  0  0  0  0  0  0  0  0  0
   -8.7900    2.2140   -7.0020 N   0  0  0  0  0  0  0  0  0  0  0  0
   -8.7940    3.6720   -7.0110 C   0  0  0  0  0  0  0  0  0  0  0  0
   -8.6480    3.9520   -8.4790 C   0  0  0  0  0  0  0  0  0  0  0  0
   -8.3810    5.1480   -9.1330 C   0  0  0  0  0  0  0  0  0  0  0  0
   -8.2560    5.1790  -10.5100 C   0  0  0  0  0  0  0  0  0  0  0  0
  2  1  1  0
  3  2  2  0
  4  2  1  0
  5  4  2  0
  6  5  1  0
  7  6  1  0
  8  7  1  1
  9  8  1  0
 10  9  1  0
 11 10  1  0
 11  8  1  0
 12  6  2  0
 13 12  1  0
 13  4  1  0
 14  5  1  0
 15 14  2  0
 15  3  1  0
 16 15  1  0
 17 16  2  0
 18 16  1  0
 19 18  1  0
 20 19  2  0
 21 20  1  0
 22 21  1  0
 23 22  1  0
 24 23  1  0
 25 24  1  0
 25 21  2  0
 26 25  1  0
 27 19  1  0
 27 26  2  0
M  END
>  <smiles>  (264) 
O=C(Nc1ccc2c(c1)CNC2)c1cc(Cl)c2[nH]nc(CC3CNC3)c2c1

>  <inchikey>  (264) 
IQIXSNSUUMIWQP-UHFFFAOYSA-N

>  <alias>  (264) 
Z4498a

$$$$
Z4756a
     RDKit          3D

 23 26  0  0  0  0  0  0  0  0999 V2000
   -6.0650    3.7930  -21.2870 O   0  0  0  0  0  0  0  0  0  0  0  0
   -6.5040    3.9760  -20.1510 C   0  0  0  0  0  0  0  0  0  0  0  0
   -7.7540    3.6440  -19.7280 N   0  0  0  0  0  0  0  0  0  0  0  0
   -7.9550    3.9890  -18.3850 C   0  0  0  0  0  0  0  0  0  0  0  0
   -9.0500    3.7330  -17.5690 C   0  0  0  0  0  0  0  0  0  0  0  0
   -8.9610    4.0570  -16.2210 C   0  0  0  0  0  0  0  0  0  0  0  0
   -5.7680    4.5900  -18.9790 C   0  0  0  0  0  0  0  0  0  0  0  0
   -6.8070    4.6120  -17.8980 C   0  0  0  0  0  0  0  0  0  0  0  0
   -6.7460    4.9380  -16.5480 C   0  0  0  0  0  0  0  0  0  0  0  0
   -7.8130    4.6470  -15.6990 C   0  0  0  0  0  0  0  0  0  0  0  0
   -7.6830    4.9500  -14.2390 C   0  0  0  0  0  0  0  0  0  0  0  0
   -6.9220    5.8260  -13.8540 O   0  0  0  0  0  0  0  0  0  0  0  0
   -8.4110    4.1760  -13.3920 N   0  0  0  0  0  0  0  0  0  0  0  0
   -8.4000    4.2670  -11.9780 C   0  0  0  0  0  0  0  0  0  0  0  0
   -8.2060    5.5040  -11.3570 C   0  0  0  0  0  0  0  0  0  0  0  0
   -8.2060    5.5960   -9.9720 C   0  0  0  0  0  0  0  0  0  0  0  0
   -8.5980    3.1320  -11.1970 C   0  0  0  0  0  0  0  0  0  0  0  0
   -8.6090    3.2300   -9.8060 C   0  0  0  0  0  0  0  0  0  0  0  0
   -8.3970    4.4580   -9.1950 C   0  0  0  0  0  0  0  0  0  0  0  0
   -8.4000    4.2880   -7.7030 C   0  0  0  0  0  0  0  0  0  0  0  0
   -8.8790    2.1870   -8.7620 C   0  0  0  0  0  0  0  0  0  0  0  0
   -8.3560    2.8220   -7.5370 N   0  0  0  0  0  0  0  0  0  0  0  0
   -9.0260    2.3600   -6.3290 C   0  0  0  0  0  0  0  0  0  0  0  0
  2  1  2  0
  3  2  1  0
  4  3  1  0
  5  4  2  0
  6  5  1  0
  7  2  1  0
  8  7  1  0
  8  4  1  0
  9  8  2  0
 10  9  1  0
 10  6  2  0
 11 10  1  0
 12 11  2  0
 13 11  1  0
 14 13  1  0
 15 14  2  0
 16 15  1  0
 17 14  1  0
 18 17  2  0
 19 18  1  0
 19 16  2  0
 20 19  1  0
 21 18  1  0
 22 21  1  0
 22 20  1  0
 23 22  1  0
M  END
>  <smiles>  (265) 
CN1Cc2ccc(NC(=O)c3ccc4c(c3)CC(=O)N4)cc2C1

>  <inchikey>  (265) 
FBKHKAZWAUCBTG-UHFFFAOYSA-N

>  <alias>  (265) 
Z4756a

$$$$
Z4811a
     RDKit          3D

 30 34  0  0  0  0  0  0  0  0999 V2000
  -10.4600    3.9130  -18.2560 Cl  0  0  0  0  0  0  0  0  0  0  0  0
   -8.9530    4.2800  -17.4670 C   0  0  0  0  0  0  0  0  0  0  0  0
   -7.8520    4.5680  -18.2470 C   0  0  0  0  0  0  0  0  0  0  0  0
   -6.6980    4.9700  -17.5920 C   0  0  0  0  0  0  0  0  0  0  0  0
   -6.6230    5.1070  -16.1950 C   0  0  0  0  0  0  0  0  0  0  0  0
   -5.2850    5.5120  -15.9490 C   0  0  0  0  0  0  0  0  0  0  0  0
   -4.5960    5.6060  -17.0690 N   0  0  0  0  0  0  0  0  0  0  0  0
   -5.4600    5.2750  -18.0780 N   0  0  0  0  0  0  0  0  0  0  0  0
   -5.0100    5.2760  -19.4710 C   0  0  1  0  0  0  0  0  0  0  0  0
   -4.7070    6.6470  -20.1080 C   0  0  0  0  0  0  0  0  0  0  0  0
   -3.5330    4.9280  -19.7530 C   0  0  0  0  0  0  0  0  0  0  0  0
   -3.5370    6.0130  -20.7610 N   0  0  0  0  0  0  0  0  0  0  0  0
   -8.9200    4.3570  -16.0820 C   0  0  0  0  0  0  0  0  0  0  0  0
   -7.7650    4.8010  -15.4350 C   0  0  0  0  0  0  0  0  0  0  0  0
   -7.7940    5.0530  -13.9550 C   0  0  0  0  0  0  0  0  0  0  0  0
   -7.2630    6.0560  -13.4840 O   0  0  0  0  0  0  0  0  0  0  0  0
   -8.3890    4.0950  -13.2000 N   0  0  0  0  0  0  0  0  0  0  0  0
   -8.4660    4.0380  -11.7840 C   0  0  0  0  0  0  0  0  0  0  0  0
   -8.6020    5.1960  -11.0230 C   0  0  0  0  0  0  0  0  0  0  0  0
   -8.6760    5.0810   -9.6580 C   0  0  0  0  0  0  0  0  0  0  0  0
   -8.8880    6.1970   -8.9240 F   0  0  0  0  0  0  0  0  0  0  0  0
   -8.5990    3.8550   -8.9950 C   0  0  0  0  0  0  0  0  0  0  0  0
   -8.4640    2.7080   -9.7700 C   0  0  0  0  0  0  0  0  0  0  0  0
   -8.4040    2.8000  -11.1530 C   0  0  0  0  0  0  0  0  0  0  0  0
   -8.6000    3.7880   -7.5630 N   0  0  0  0  0  0  0  0  0  0  0  0
   -7.7580    4.4700   -6.7200 C   0  0  0  0  0  0  0  0  0  0  0  0
   -6.8580    5.2140   -7.0780 O   0  0  0  0  0  0  0  0  0  0  0  0
   -8.1150    4.1040   -5.3070 C   0  0  0  0  0  0  0  0  0  0  0  0
   -9.4570    3.4100   -5.4180 C   0  0  0  0  0  0  0  0  0  0  0  0
   -9.5330    2.9110   -6.8450 C   0  0  0  0  0  0  0  0  0  0  0  0
  2  1  1  0
  3  2  2  0
  4  3  1  0
  5  4  2  0
  6  5  1  0
  7  6  2  0
  8  4  1  0
  8  7  1  0
  9  8  1  1
 10  9  1  0
 11  9  1  0
 12 11  1  0
 12 10  1  0
 13  2  1  0
 14 13  2  0
 14  5  1  0
 15 14  1  0
 16 15  2  0
 17 15  1  0
 18 17  1  0
 19 18  2  0
 20 19  1  0
 21 20  1  0
 22 20  2  0
 23 22  1  0
 24 18  1  0
 24 23  2  0
 25 22  1  0
 26 25  1  0
 27 26  2  0
 28 26  1  0
 29 28  1  0
 30 25  1  0
 30 29  1  0
M  END
>  <smiles>  (266) 
O=C(Nc1ccc(N2CCCC2=O)c(F)c1)c1cc(Cl)cc2c1cnn2C1CNC1

>  <inchikey>  (266) 
RZHCWEFKFJBQFK-UHFFFAOYSA-N

>  <alias>  (266) 
Z4811a

$$$$
Z4816a
     RDKit          3D

 30 34  0  0  0  0  0  0  0  0999 V2000
  -10.4570    3.9480  -18.2370 Cl  0  0  0  0  0  0  0  0  0  0  0  0
   -8.9580    4.4420  -17.5020 C   0  0  0  0  0  0  0  0  0  0  0  0
   -8.9010    4.5860  -16.1240 C   0  0  0  0  0  0  0  0  0  0  0  0
   -7.8700    4.6860  -18.3150 C   0  0  0  0  0  0  0  0  0  0  0  0
   -6.6960    5.0900  -17.6950 C   0  0  0  0  0  0  0  0  0  0  0  0
   -5.4710    5.3860  -18.2170 N   0  0  0  0  0  0  0  0  0  0  0  0
   -5.0470    5.3280  -19.6180 C   0  0  2  0  0  0  0  0  0  0  0  0
   -3.5370    5.1970  -19.9040 C   0  0  0  0  0  0  0  0  0  0  0  0
   -3.7500    6.1400  -21.0260 N   0  0  0  0  0  0  0  0  0  0  0  0
   -4.9860    6.6580  -20.3940 C   0  0  0  0  0  0  0  0  0  0  0  0
   -4.5820    5.7360  -17.2360 N   0  0  0  0  0  0  0  0  0  0  0  0
   -5.2400    5.6550  -16.0980 C   0  0  0  0  0  0  0  0  0  0  0  0
   -6.5860    5.2560  -16.3050 C   0  0  0  0  0  0  0  0  0  0  0  0
   -7.7180    5.0060  -15.5120 C   0  0  0  0  0  0  0  0  0  0  0  0
   -7.6810    5.2480  -14.0310 C   0  0  0  0  0  0  0  0  0  0  0  0
   -6.9290    6.0970  -13.5590 O   0  0  0  0  0  0  0  0  0  0  0  0
   -8.4850    4.4590  -13.2720 N   0  0  0  0  0  0  0  0  0  0  0  0
   -8.5850    4.4450  -11.8520 C   0  0  0  0  0  0  0  0  0  0  0  0
   -8.8490    3.2390  -11.2120 C   0  0  0  0  0  0  0  0  0  0  0  0
   -8.9160    3.1920   -9.8300 C   0  0  0  0  0  0  0  0  0  0  0  0
   -8.7140    4.3390   -9.0820 C   0  0  0  0  0  0  0  0  0  0  0  0
   -8.3950    5.5990  -11.0940 C   0  0  0  0  0  0  0  0  0  0  0  0
   -8.4450    5.5510   -9.7050 C   0  0  0  0  0  0  0  0  0  0  0  0
   -8.1600    6.7880   -8.8730 C   0  0  2  0  0  0  0  0  0  0  0  0
   -9.2530    7.8590   -8.9790 C   0  0  0  0  0  0  0  0  0  0  0  0
   -8.9310    9.0650   -8.0850 C   0  0  0  0  0  0  0  0  0  0  0  0
   -6.8000    7.4260   -9.1790 C   0  0  0  0  0  0  0  0  0  0  0  0
   -6.5490    8.6490   -8.2810 C   0  0  0  0  0  0  0  0  0  0  0  0
   -7.6230    9.6530   -8.4270 N   0  0  0  0  0  0  0  0  0  0  0  0
   -7.6320   10.2510   -9.7860 C   0  0  0  0  0  0  0  0  0  0  0  0
  2  1  1  0
  3  2  2  0
  4  2  1  0
  5  4  2  0
  6  5  1  0
  7  6  1  1
  8  7  1  0
  9  8  1  0
 10  7  1  0
 10  9  1  0
 11  6  1  0
 12 11  2  0
 13  5  1  0
 13 12  1  0
 14 13  2  0
 14  3  1  0
 15 14  1  0
 16 15  2  0
 17 15  1  0
 18 17  1  0
 19 18  2  0
 20 19  1  0
 21 20  2  0
 22 18  1  0
 23 21  1  0
 23 22  2  0
 24 23  1  6
 25 24  1  0
 26 25  1  0
 27 24  1  0
 28 27  1  0
 29 28  1  0
 29 26  1  0
 30 29  1  0
M  END
>  <smiles>  (267) 
CN1CCC(c2cccc(NC(=O)c3cc(Cl)cc4c3cnn4C3CNC3)c2)CC1

>  <inchikey>  (267) 
UNRWJPBZHNJGMF-UHFFFAOYSA-N

>  <alias>  (267) 
Z4816a

$$$$
Z4827a
     RDKit          3D

 30 34  0  0  0  0  0  0  0  0999 V2000
  -10.5490    4.0200  -18.3160 Cl  0  0  0  0  0  0  0  0  0  0  0  0
   -8.9980    4.3910  -17.6070 C   0  0  0  0  0  0  0  0  0  0  0  0
   -7.9220    4.6200  -18.4430 C   0  0  0  0  0  0  0  0  0  0  0  0
   -6.7190    4.9740  -17.8500 C   0  0  0  0  0  0  0  0  0  0  0  0
   -6.5690    5.1120  -16.4610 C   0  0  0  0  0  0  0  0  0  0  0  0
   -5.2050    5.4640  -16.2810 C   0  0  0  0  0  0  0  0  0  0  0  0
   -4.5720    5.5390  -17.4340 N   0  0  0  0  0  0  0  0  0  0  0  0
   -5.4970    5.2410  -18.3980 N   0  0  0  0  0  0  0  0  0  0  0  0
   -5.1080    5.2380  -19.8100 C   0  0  2  0  0  0  0  0  0  0  0  0
   -3.6010    5.1100  -20.1270 C   0  0  0  0  0  0  0  0  0  0  0  0
   -5.0380    6.6280  -20.4750 C   0  0  0  0  0  0  0  0  0  0  0  0
   -3.7640    6.2080  -21.1070 N   0  0  0  0  0  0  0  0  0  0  0  0
   -8.8990    4.4930  -16.2290 C   0  0  0  0  0  0  0  0  0  0  0  0
   -7.6860    4.8760  -15.6450 C   0  0  0  0  0  0  0  0  0  0  0  0
   -7.5830    5.0970  -14.1660 C   0  0  0  0  0  0  0  0  0  0  0  0
   -6.6000    5.6520  -13.6820 O   0  0  0  0  0  0  0  0  0  0  0  0
   -8.5960    4.6110  -13.4160 N   0  0  0  0  0  0  0  0  0  0  0  0
   -8.6240    4.5810  -12.0010 C   0  0  0  0  0  0  0  0  0  0  0  0
   -8.5430    5.7590  -11.2360 C   0  0  0  0  0  0  0  0  0  0  0  0
   -8.5500    5.6870   -9.8470 C   0  0  0  0  0  0  0  0  0  0  0  0
   -8.6390    4.4480   -9.2600 C   0  0  0  0  0  0  0  0  0  0  0  0
   -8.7220    4.3860   -7.9050 F   0  0  0  0  0  0  0  0  0  0  0  0
   -8.7060    3.2820   -9.9710 C   0  0  0  0  0  0  0  0  0  0  0  0
   -8.7030    3.3520  -11.3510 C   0  0  0  0  0  0  0  0  0  0  0  0
   -8.3860    7.0750  -11.7920 N   0  0  0  0  0  0  0  0  0  0  0  0
   -9.2460    7.7090  -12.6600 C   0  0  0  0  0  0  0  0  0  0  0  0
  -10.1510    7.1660  -13.2760 O   0  0  0  0  0  0  0  0  0  0  0  0
   -8.8590    9.1590  -12.7210 C   0  0  0  0  0  0  0  0  0  0  0  0
   -7.4170    9.1860  -12.2370 C   0  0  0  0  0  0  0  0  0  0  0  0
   -7.2410    7.9230  -11.4020 C   0  0  0  0  0  0  0  0  0  0  0  0
  2  1  1  0
  3  2  2  0
  4  3  1  0
  5  4  2  0
  6  5  1  0
  7  6  2  0
  8  4  1  0
  8  7  1  0
  9  8  1  1
 10  9  1  0
 11  9  1  0
 12 10  1  0
 12 11  1  0
 13  2  1  0
 14  5  1  0
 14 13  2  0
 15 14  1  0
 16 15  2  0
 17 15  1  0
 18 17  1  0
 19 18  1  0
 20 19  2  0
 21 20  1  0
 22 21  1  0
 23 21  2  0
 24 18  2  0
 24 23  1  0
 25 19  1  0
 26 25  1  0
 27 26  2  0
 28 26  1  0
 29 28  1  0
 30 29  1  0
 30 25  1  0
M  END
>  <smiles>  (268) 
O=C(Nc1ccc(F)cc1N1CCCC1=O)c1cc(Cl)cc2c1cnn2C1CNC1

>  <inchikey>  (268) 
NJUZARKEFBTBOM-UHFFFAOYSA-N

>  <alias>  (268) 
Z4827a

$$$$
Z4838a
     RDKit          3D

 28 32  0  0  0  0  0  0  0  0999 V2000
  -10.6130    4.2230  -18.2060 Cl  0  0  0  0  0  0  0  0  0  0  0  0
   -9.0760    4.5840  -17.4640 C   0  0  0  0  0  0  0  0  0  0  0  0
   -7.9720    4.7620  -18.2770 C   0  0  0  0  0  0  0  0  0  0  0  0
   -6.7820    5.1290  -17.6620 C   0  0  0  0  0  0  0  0  0  0  0  0
   -6.6650    5.3000  -16.2720 C   0  0  0  0  0  0  0  0  0  0  0  0
   -5.3230    5.7160  -16.0760 C   0  0  0  0  0  0  0  0  0  0  0  0
   -4.6710    5.7970  -17.2190 N   0  0  0  0  0  0  0  0  0  0  0  0
   -5.5620    5.4380  -18.1930 N   0  0  0  0  0  0  0  0  0  0  0  0
   -5.1530    5.4490  -19.6000 C   0  0  2  0  0  0  0  0  0  0  0  0
   -3.6480    5.2670  -19.8840 C   0  0  0  0  0  0  0  0  0  0  0  0
   -5.0230    6.8410  -20.2500 C   0  0  0  0  0  0  0  0  0  0  0  0
   -3.7280    6.4100  -20.8210 N   0  0  0  0  0  0  0  0  0  0  0  0
   -9.0110    4.7280  -16.0860 C   0  0  0  0  0  0  0  0  0  0  0  0
   -7.8030    5.0810  -15.4750 C   0  0  0  0  0  0  0  0  0  0  0  0
   -7.7330    5.2350  -13.9810 C   0  0  0  0  0  0  0  0  0  0  0  0
   -7.0750    6.1450  -13.4740 O   0  0  0  0  0  0  0  0  0  0  0  0
   -8.4200    4.3140  -13.2540 N   0  0  0  0  0  0  0  0  0  0  0  0
   -8.5400    4.2560  -11.8390 C   0  0  0  0  0  0  0  0  0  0  0  0
   -8.6850    3.0420  -11.1680 C   0  0  0  0  0  0  0  0  0  0  0  0
   -8.9040    3.0330   -9.7940 C   0  0  0  0  0  0  0  0  0  0  0  0
   -8.7790    1.9230   -8.7850 C   0  0  0  0  0  0  0  0  0  0  0  0
   -8.9230    2.6570   -7.4310 C   0  0  1  0  0  0  0  0  0  0  0  0
  -10.1010    2.1640   -6.6150 C   0  0  0  0  0  0  0  0  0  0  0  0
   -7.6470    2.6590   -6.6170 C   0  0  0  0  0  0  0  0  0  0  0  0
   -9.2080    4.0730   -7.7730 O   0  0  0  0  0  0  0  0  0  0  0  0
   -8.9520    4.2290   -9.1130 C   0  0  0  0  0  0  0  0  0  0  0  0
   -8.7840    5.4460   -9.7480 C   0  0  0  0  0  0  0  0  0  0  0  0
   -8.5780    5.4520  -11.1190 C   0  0  0  0  0  0  0  0  0  0  0  0
  2  1  1  0
  3  2  2  0
  4  3  1  0
  5  4  2  0
  6  5  1  0
  7  6  2  0
  8  4  1  0
  8  7  1  0
  9  8  1  1
 10  9  1  0
 11  9  1  0
 12 10  1  0
 12 11  1  0
 13  2  1  0
 14 13  2  0
 14  5  1  0
 15 14  1  0
 16 15  2  0
 17 15  1  0
 18 17  1  0
 19 18  2  0
 20 19  1  0
 21 20  1  0
 22 21  1  0
 22 23  1  1
 24 22  1  0
 25 22  1  0
 26 25  1  0
 26 20  2  0
 27 26  1  0
 28 18  1  0
 28 27  2  0
M  END
>  <smiles>  (269) 
CC1(C)Cc2cc(NC(=O)c3cc(Cl)cc4c3cnn4C3CNC3)ccc2O1

>  <inchikey>  (269) 
SQFXRWAKLPCOCJ-UHFFFAOYSA-N

>  <alias>  (269) 
Z4838a

$$$$
Z4849a
     RDKit          3D

 28 32  0  0  0  0  0  0  0  0999 V2000
  -10.5840    4.0670  -18.2900 Cl  0  0  0  0  0  0  0  0  0  0  0  0
   -9.0340    4.3890  -17.5590 C   0  0  0  0  0  0  0  0  0  0  0  0
   -7.9550    4.6450  -18.3810 C   0  0  0  0  0  0  0  0  0  0  0  0
   -6.7670    5.0180  -17.7740 C   0  0  0  0  0  0  0  0  0  0  0  0
   -6.6320    5.1550  -16.3830 C   0  0  0  0  0  0  0  0  0  0  0  0
   -5.2710    5.5120  -16.1900 C   0  0  0  0  0  0  0  0  0  0  0  0
   -4.6240    5.5770  -17.3360 N   0  0  0  0  0  0  0  0  0  0  0  0
   -5.5370    5.2770  -18.3090 N   0  0  0  0  0  0  0  0  0  0  0  0
   -5.1440    5.2770  -19.7190 C   0  0  2  0  0  0  0  0  0  0  0  0
   -3.6420    5.1160  -20.0440 C   0  0  0  0  0  0  0  0  0  0  0  0
   -5.0570    6.6600  -20.3980 C   0  0  0  0  0  0  0  0  0  0  0  0
   -3.8150    6.1860  -21.0530 N   0  0  0  0  0  0  0  0  0  0  0  0
   -8.9450    4.4650  -16.1770 C   0  0  0  0  0  0  0  0  0  0  0  0
   -7.7490    4.8740  -15.5770 C   0  0  0  0  0  0  0  0  0  0  0  0
   -7.6750    5.0710  -14.0910 C   0  0  0  0  0  0  0  0  0  0  0  0
   -6.7960    5.7710  -13.5970 O   0  0  0  0  0  0  0  0  0  0  0  0
   -8.5920    4.4040  -13.3490 N   0  0  0  0  0  0  0  0  0  0  0  0
   -8.6410    4.3750  -11.9310 C   0  0  0  0  0  0  0  0  0  0  0  0
   -8.5990    5.5930  -11.2350 C   0  0  0  0  0  0  0  0  0  0  0  0
   -8.5970    6.8460  -11.7900 O   0  0  0  0  0  0  0  0  0  0  0  0
   -8.2480    7.8010  -10.7070 C   0  0  2  0  0  0  0  0  0  0  0  0
   -9.1720    8.9950  -10.8690 C   0  0  0  0  0  0  0  0  0  0  0  0
   -6.7910    8.1770  -10.9170 C   0  0  0  0  0  0  0  0  0  0  0  0
   -8.4850    7.0260   -9.3920 C   0  0  0  0  0  0  0  0  0  0  0  0
   -8.5460    5.5950   -9.8520 C   0  0  0  0  0  0  0  0  0  0  0  0
   -8.5530    4.3940   -9.1500 C   0  0  0  0  0  0  0  0  0  0  0  0
   -8.6140    3.1920   -9.8340 C   0  0  0  0  0  0  0  0  0  0  0  0
   -8.6620    3.1750  -11.2180 C   0  0  0  0  0  0  0  0  0  0  0  0
  2  1  1  0
  3  2  2  0
  4  3  1  0
  5  4  2  0
  6  5  1  0
  7  6  2  0
  8  4  1  0
  8  7  1  0
  9  8  1  1
 10  9  1  0
 11  9  1  0
 12 10  1  0
 12 11  1  0
 13  2  1  0
 14  5  1  0
 14 13  2  0
 15 14  1  0
 16 15  2  0
 17 15  1  0
 18 17  1  0
 19 18  2  0
 20 19  1  0
 21 20  1  0
 21 22  1  1
 23 21  1  0
 24 21  1  0
 25 19  1  0
 25 24  1  0
 26 25  2  0
 27 26  1  0
 28 18  1  0
 28 27  2  0
M  END
>  <smiles>  (270) 
CC1(C)Cc2cccc(NC(=O)c3cc(Cl)cc4c3cnn4C3CNC3)c2O1

>  <inchikey>  (270) 
GHLDJNMZCNIKOE-UHFFFAOYSA-N

>  <alias>  (270) 
Z4849a

$$$$
Z4855a
     RDKit          3D

 27 31  0  0  0  0  0  0  0  0999 V2000
  -10.5600    4.1300  -18.1900 Cl  0  0  0  0  0  0  0  0  0  0  0  0
   -9.0450    4.5010  -17.4180 C   0  0  0  0  0  0  0  0  0  0  0  0
   -7.9450    4.7480  -18.2140 C   0  0  0  0  0  0  0  0  0  0  0  0
   -6.7630    5.0920  -17.5790 C   0  0  0  0  0  0  0  0  0  0  0  0
   -6.6520    5.2070  -16.1830 C   0  0  0  0  0  0  0  0  0  0  0  0
   -5.2860    5.5160  -15.9590 C   0  0  0  0  0  0  0  0  0  0  0  0
   -4.6120    5.5760  -17.0920 N   0  0  0  0  0  0  0  0  0  0  0  0
   -5.5180    5.3220  -18.0870 N   0  0  0  0  0  0  0  0  0  0  0  0
   -5.1050    5.3360  -19.4930 C   0  0  1  0  0  0  0  0  0  0  0  0
   -5.1370    6.6990  -20.2150 C   0  0  0  0  0  0  0  0  0  0  0  0
   -3.5980    5.2940  -19.8290 C   0  0  0  0  0  0  0  0  0  0  0  0
   -3.8880    6.2820  -20.8940 N   0  0  0  0  0  0  0  0  0  0  0  0
   -8.9920    4.5860  -16.0310 C   0  0  0  0  0  0  0  0  0  0  0  0
   -7.7970    4.9530  -15.3970 C   0  0  0  0  0  0  0  0  0  0  0  0
   -7.7430    5.1730  -13.9050 C   0  0  0  0  0  0  0  0  0  0  0  0
   -7.0830    6.1040  -13.4430 O   0  0  0  0  0  0  0  0  0  0  0  0
   -8.4260    4.2880  -13.1220 N   0  0  0  0  0  0  0  0  0  0  0  0
   -8.5150    4.3120  -11.6960 C   0  0  0  0  0  0  0  0  0  0  0  0
   -8.6670    3.1440  -10.9520 C   0  0  0  0  0  0  0  0  0  0  0  0
   -8.7470    3.1790   -9.5560 C   0  0  0  0  0  0  0  0  0  0  0  0
   -8.9500    1.8920   -8.7920 C   0  0  0  0  0  0  0  0  0  0  0  0
   -9.3860    2.1020   -7.3580 C   0  0  0  0  0  0  0  0  0  0  0  0
   -8.5440    3.1740   -6.6860 C   0  0  0  0  0  0  0  0  0  0  0  0
   -8.7320    4.5120   -7.3860 C   0  0  0  0  0  0  0  0  0  0  0  0
   -8.6500    4.4160   -8.8920 C   0  0  0  0  0  0  0  0  0  0  0  0
   -8.4930    5.5750   -9.6460 C   0  0  0  0  0  0  0  0  0  0  0  0
   -8.4370    5.5300  -11.0290 C   0  0  0  0  0  0  0  0  0  0  0  0
  2  1  1  0
  3  2  2  0
  4  3  1  0
  5  4  2  0
  6  5  1  0
  7  6  2  0
  8  4  1  0
  8  7  1  0
  9  8  1  1
 10  9  1  0
 11  9  1  0
 12 11  1  0
 12 10  1  0
 13  2  1  0
 14 13  2  0
 14  5  1  0
 15 14  1  0
 16 15  2  0
 17 15  1  0
 18 17  1  0
 19 18  2  0
 20 19  1  0
 21 20  1  0
 22 21  1  0
 23 22  1  0
 24 23  1  0
 25 24  1  0
 25 20  2  0
 26 25  1  0
 27 18  1  0
 27 26  2  0
M  END
>  <smiles>  (271) 
O=C(Nc1ccc2c(c1)CCCC2)c1cc(Cl)cc2c1cnn2C1CNC1

>  <inchikey>  (271) 
DPIGUVGLMKTLPK-UHFFFAOYSA-N

>  <alias>  (271) 
Z4855a

$$$$
Z4857a
     RDKit          3D

 27 31  0  0  0  0  0  0  0  0999 V2000
  -10.4560    3.9580  -18.1690 Cl  0  0  0  0  0  0  0  0  0  0  0  0
   -8.9400    4.3040  -17.3880 C   0  0  0  0  0  0  0  0  0  0  0  0
   -8.9020    4.3960  -16.0030 C   0  0  0  0  0  0  0  0  0  0  0  0
   -7.8340    4.5530  -18.1770 C   0  0  0  0  0  0  0  0  0  0  0  0
   -6.6700    4.9410  -17.5310 C   0  0  0  0  0  0  0  0  0  0  0  0
   -5.4390    5.2520  -18.0280 N   0  0  0  0  0  0  0  0  0  0  0  0
   -5.0040    5.2550  -19.4260 C   0  0  1  0  0  0  0  0  0  0  0  0
   -4.9360    6.6100  -20.1530 C   0  0  0  0  0  0  0  0  0  0  0  0
   -3.6530    6.1560  -20.7450 N   0  0  0  0  0  0  0  0  0  0  0  0
   -3.4920    5.1160  -19.7030 C   0  0  0  0  0  0  0  0  0  0  0  0
   -4.5660    5.5840  -17.0280 N   0  0  0  0  0  0  0  0  0  0  0  0
   -5.2450    5.4870  -15.9020 C   0  0  0  0  0  0  0  0  0  0  0  0
   -6.5870    5.0870  -16.1380 C   0  0  0  0  0  0  0  0  0  0  0  0
   -7.7290    4.8130  -15.3680 C   0  0  0  0  0  0  0  0  0  0  0  0
   -7.6870    5.0580  -13.8890 C   0  0  0  0  0  0  0  0  0  0  0  0
   -6.8990    5.8740  -13.4230 O   0  0  0  0  0  0  0  0  0  0  0  0
   -8.5050    4.3100  -13.1190 N   0  0  0  0  0  0  0  0  0  0  0  0
   -8.5650    4.3430  -11.7010 C   0  0  0  0  0  0  0  0  0  0  0  0
   -8.4870    5.5600  -11.0220 C   0  0  0  0  0  0  0  0  0  0  0  0
   -8.5100    5.5870   -9.6360 C   0  0  0  0  0  0  0  0  0  0  0  0
   -8.6770    3.1590  -10.9760 C   0  0  0  0  0  0  0  0  0  0  0  0
   -8.7150    3.1930   -9.5850 C   0  0  0  0  0  0  0  0  0  0  0  0
   -8.6200    4.4040   -8.9160 C   0  0  0  0  0  0  0  0  0  0  0  0
   -8.6490    4.1680   -7.4330 C   0  0  0  0  0  0  0  0  0  0  0  0
   -8.9270    2.0840   -8.5970 C   0  0  0  0  0  0  0  0  0  0  0  0
   -8.5250    2.7000   -7.3180 N   0  0  0  0  0  0  0  0  0  0  0  0
   -9.2380    2.1620   -6.1770 C   0  0  0  0  0  0  0  0  0  0  0  0
  2  1  1  0
  3  2  2  0
  4  2  1  0
  5  4  2  0
  6  5  1  0
  7  6  1  1
  8  7  1  0
  9  8  1  0
 10  7  1  0
 10  9  1  0
 11  6  1  0
 12 11  2  0
 13  5  1  0
 13 12  1  0
 14 13  2  0
 14  3  1  0
 15 14  1  0
 16 15  2  0
 17 15  1  0
 18 17  1  0
 19 18  2  0
 20 19  1  0
 21 18  1  0
 22 21  2  0
 23 22  1  0
 23 20  2  0
 24 23  1  0
 25 22  1  0
 26 25  1  0
 26 24  1  0
 27 26  1  0
M  END
>  <smiles>  (272) 
CN1Cc2ccc(NC(=O)c3cc(Cl)cc4c3cnn4C3CNC3)cc2C1

>  <inchikey>  (272) 
GJPKJEYLEADGRU-UHFFFAOYSA-N

>  <alias>  (272) 
Z4857a

$$$$
Z4858a
     RDKit          3D

 29 33  0  0  0  0  0  0  0  0999 V2000
  -10.5160    4.1100  -18.1780 Cl  0  0  0  0  0  0  0  0  0  0  0  0
   -8.9680    4.5120  -17.4880 C   0  0  0  0  0  0  0  0  0  0  0  0
   -7.8980    4.7000  -18.3390 C   0  0  0  0  0  0  0  0  0  0  0  0
   -6.6980    5.0960  -17.7730 C   0  0  0  0  0  0  0  0  0  0  0  0
   -6.5370    5.2960  -16.3940 C   0  0  0  0  0  0  0  0  0  0  0  0
   -5.1760    5.6640  -16.2430 C   0  0  0  0  0  0  0  0  0  0  0  0
   -4.5530    5.6960  -17.4040 N   0  0  0  0  0  0  0  0  0  0  0  0
   -5.4840    5.3530  -18.3450 N   0  0  0  0  0  0  0  0  0  0  0  0
   -5.1150    5.3260  -19.7620 C   0  0  2  0  0  0  0  0  0  0  0  0
   -3.6110    5.2180  -20.0950 C   0  0  0  0  0  0  0  0  0  0  0  0
   -5.0810    6.6900  -20.4810 C   0  0  0  0  0  0  0  0  0  0  0  0
   -3.8270    6.2490  -21.1340 N   0  0  0  0  0  0  0  0  0  0  0  0
   -8.8650    4.6900  -16.1160 C   0  0  0  0  0  0  0  0  0  0  0  0
   -7.6500    5.1020  -15.5580 C   0  0  0  0  0  0  0  0  0  0  0  0
   -7.5420    5.4470  -14.0990 C   0  0  0  0  0  0  0  0  0  0  0  0
   -6.6360    6.1720  -13.6960 O   0  0  0  0  0  0  0  0  0  0  0  0
   -8.5060    4.9650  -13.2810 N   0  0  0  0  0  0  0  0  0  0  0  0
   -8.6250    5.2690  -11.9000 C   0  0  0  0  0  0  0  0  0  0  0  0
   -8.7080    4.2530  -10.9530 C   0  0  0  0  0  0  0  0  0  0  0  0
   -8.7260    4.5570   -9.5860 C   0  0  0  0  0  0  0  0  0  0  0  0
   -8.6460    5.8930   -9.1830 C   0  0  0  0  0  0  0  0  0  0  0  0
   -8.6080    6.8660  -10.1510 C   0  0  0  0  0  0  0  0  0  0  0  0
   -8.6880    8.1650   -9.7550 F   0  0  0  0  0  0  0  0  0  0  0  0
   -8.5860    6.6010  -11.4970 C   0  0  0  0  0  0  0  0  0  0  0  0
   -8.8840    3.5470   -8.6430 N   0  0  0  0  0  0  0  0  0  0  0  0
   -8.8260    3.7630   -7.1970 C   0  0  0  0  0  0  0  0  0  0  0  0
   -8.6900    2.3630   -6.6440 C   0  0  0  0  0  0  0  0  0  0  0  0
   -9.3980    1.4930   -7.6490 C   0  0  0  0  0  0  0  0  0  0  0  0
   -9.1400    2.1490   -8.9850 C   0  0  0  0  0  0  0  0  0  0  0  0
  2  1  1  0
  3  2  2  0
  4  3  1  0
  5  4  2  0
  6  5  1  0
  7  6  2  0
  8  4  1  0
  8  7  1  0
  9  8  1  1
 10  9  1  0
 11  9  1  0
 12 10  1  0
 12 11  1  0
 13  2  1  0
 14  5  1  0
 14 13  2  0
 15 14  1  0
 16 15  2  0
 17 15  1  0
 18 17  1  0
 19 18  2  0
 20 19  1  0
 21 20  2  0
 22 21  1  0
 23 22  1  0
 24 18  1  0
 24 22  2  0
 25 20  1  0
 26 25  1  0
 27 26  1  0
 28 27  1  0
 29 28  1  0
 29 25  1  0
M  END
>  <smiles>  (273) 
O=C(Nc1cc(F)cc(N2CCCC2)c1)c1cc(Cl)cc2c1cnn2C1CNC1

>  <inchikey>  (273) 
KOINTBWNZYBEOK-UHFFFAOYSA-N

>  <alias>  (273) 
Z4858a

$$$$
Z4859a
     RDKit          3D

 27 31  0  0  0  0  0  0  0  0999 V2000
  -10.5140    4.0290  -18.2660 Cl  0  0  0  0  0  0  0  0  0  0  0  0
   -9.0130    4.4390  -17.4860 C   0  0  0  0  0  0  0  0  0  0  0  0
   -7.9010    4.6760  -18.2730 C   0  0  0  0  0  0  0  0  0  0  0  0
   -6.7520    5.1120  -17.6330 C   0  0  0  0  0  0  0  0  0  0  0  0
   -6.6820    5.3080  -16.2440 C   0  0  0  0  0  0  0  0  0  0  0  0
   -5.3510    5.7450  -16.0120 C   0  0  0  0  0  0  0  0  0  0  0  0
   -4.6620    5.8040  -17.1350 N   0  0  0  0  0  0  0  0  0  0  0  0
   -5.5170    5.4120  -18.1290 N   0  0  0  0  0  0  0  0  0  0  0  0
   -5.0570    5.3360  -19.5180 C   0  0  2  0  0  0  0  0  0  0  0  0
   -3.5380    5.2240  -19.7660 C   0  0  0  0  0  0  0  0  0  0  0  0
   -5.0080    6.6650  -20.2980 C   0  0  0  0  0  0  0  0  0  0  0  0
   -3.7130    6.2100  -20.8570 N   0  0  0  0  0  0  0  0  0  0  0  0
   -8.9870    4.5790  -16.1070 C   0  0  0  0  0  0  0  0  0  0  0  0
   -7.8220    5.0190  -15.4720 C   0  0  0  0  0  0  0  0  0  0  0  0
   -7.7950    5.1540  -13.9770 C   0  0  0  0  0  0  0  0  0  0  0  0
   -7.0940    6.0060  -13.4360 O   0  0  0  0  0  0  0  0  0  0  0  0
   -8.5260    4.2410  -13.2880 N   0  0  0  0  0  0  0  0  0  0  0  0
   -8.5770    4.0650  -11.8790 C   0  0  0  0  0  0  0  0  0  0  0  0
   -8.5700    5.1290  -10.9800 C   0  0  0  0  0  0  0  0  0  0  0  0
   -8.6560    4.8520   -9.6350 C   0  0  0  0  0  0  0  0  0  0  0  0
   -8.5930    5.8880   -8.7660 F   0  0  0  0  0  0  0  0  0  0  0  0
   -8.7860    3.5750   -9.1180 C   0  0  0  0  0  0  0  0  0  0  0  0
   -8.7480    2.5280  -10.0320 C   0  0  0  0  0  0  0  0  0  0  0  0
   -8.6490    2.7630  -11.3930 C   0  0  0  0  0  0  0  0  0  0  0  0
   -9.1630    3.3320   -7.6640 C   0  0  2  0  0  0  0  0  0  0  0  0
   -8.1760    2.8350   -6.6500 C   0  0  0  0  0  0  0  0  0  0  0  0
   -9.2320    1.9250   -7.1450 C   0  0  0  0  0  0  0  0  0  0  0  0
  2  1  1  0
  3  2  2  0
  4  3  1  0
  5  4  2  0
  6  5  1  0
  7  6  2  0
  8  4  1  0
  8  7  1  0
  9  8  1  1
 10  9  1  0
 11  9  1  0
 12 10  1  0
 12 11  1  0
 13  2  1  0
 14 13  2  0
 14  5  1  0
 15 14  1  0
 16 15  2  0
 17 15  1  0
 18 17  1  0
 19 18  2  0
 20 19  1  0
 21 20  1  0
 22 20  2  0
 23 22  1  0
 24 18  1  0
 24 23  2  0
 25 22  1  6
 26 25  1  0
 27 26  1  0
 27 25  1  0
M  END
>  <smiles>  (274) 
O=C(Nc1ccc(C2CC2)c(F)c1)c1cc(Cl)cc2c1cnn2C1CNC1

>  <inchikey>  (274) 
POJCPAOYDHPCJH-UHFFFAOYSA-N

>  <alias>  (274) 
Z4859a

$$$$
Z4861a
     RDKit          3D

 29 33  0  0  0  0  0  0  0  0999 V2000
  -10.4740    3.8840  -18.2980 Cl  0  0  0  0  0  0  0  0  0  0  0  0
   -8.9330    4.2490  -17.5800 C   0  0  0  0  0  0  0  0  0  0  0  0
   -7.8600    4.4990  -18.4100 C   0  0  0  0  0  0  0  0  0  0  0  0
   -6.6870    4.9320  -17.8150 C   0  0  0  0  0  0  0  0  0  0  0  0
   -6.5550    5.1040  -16.4280 C   0  0  0  0  0  0  0  0  0  0  0  0
   -5.2100    5.5170  -16.2460 C   0  0  0  0  0  0  0  0  0  0  0  0
   -4.5690    5.5910  -17.3940 N   0  0  0  0  0  0  0  0  0  0  0  0
   -5.4730    5.2370  -18.3590 N   0  0  0  0  0  0  0  0  0  0  0  0
   -5.0800    5.2300  -19.7700 C   0  0  1  0  0  0  0  0  0  0  0  0
   -4.9330    6.6080  -20.4480 C   0  0  0  0  0  0  0  0  0  0  0  0
   -3.5870    5.0000  -20.0910 C   0  0  0  0  0  0  0  0  0  0  0  0
   -3.6740    6.1200  -21.0570 N   0  0  0  0  0  0  0  0  0  0  0  0
   -8.8490    4.3720  -16.2020 C   0  0  0  0  0  0  0  0  0  0  0  0
   -7.6590    4.8080  -15.6140 C   0  0  0  0  0  0  0  0  0  0  0  0
   -7.5560    4.9320  -14.1230 C   0  0  0  0  0  0  0  0  0  0  0  0
   -6.6240    5.5400  -13.6030 O   0  0  0  0  0  0  0  0  0  0  0  0
   -8.5010    4.2860  -13.4050 N   0  0  0  0  0  0  0  0  0  0  0  0
   -8.5060    4.1850  -11.9950 C   0  0  0  0  0  0  0  0  0  0  0  0
   -8.5710    5.3270  -11.2090 C   0  0  0  0  0  0  0  0  0  0  0  0
   -8.6360    6.5280  -11.8330 F   0  0  0  0  0  0  0  0  0  0  0  0
   -8.6200    5.2940   -9.8400 C   0  0  0  0  0  0  0  0  0  0  0  0
   -8.6570    4.0660   -9.1950 C   0  0  0  0  0  0  0  0  0  0  0  0
   -8.5400    2.9080   -9.9550 C   0  0  0  0  0  0  0  0  0  0  0  0
   -8.4670    2.9570  -11.3370 C   0  0  0  0  0  0  0  0  0  0  0  0
   -9.0300    4.0000   -7.7270 C   0  0  2  0  0  0  0  0  0  0  0  0
   -7.8420    4.1060   -6.7570 C   0  0  0  0  0  0  0  0  0  0  0  0
   -7.8420    2.9250   -5.9470 O   0  0  0  0  0  0  0  0  0  0  0  0
   -8.6200    1.9490   -6.6090 C   0  0  0  0  0  0  0  0  0  0  0  0
   -9.7300    2.7030   -7.2680 C   0  0  0  0  0  0  0  0  0  0  0  0
  2  1  1  0
  3  2  2  0
  4  3  1  0
  5  4  2  0
  6  5  1  0
  7  6  2  0
  8  4  1  0
  8  7  1  0
  9  8  1  1
 10  9  1  0
 11  9  1  0
 12 11  1  0
 12 10  1  0
 13  2  1  0
 14  5  1  0
 14 13  2  0
 15 14  1  0
 16 15  2  0
 17 15  1  0
 18 17  1  0
 19 18  2  0
 20 19  1  0
 21 19  1  0
 22 21  2  0
 23 22  1  0
 24 18  1  0
 24 23  2  0
 25 22  1  6
 26 25  1  0
 27 26  1  0
 28 27  1  0
 29 28  1  0
 29 25  1  0
M  END
>  <smiles>  (275) 
O=C(Nc1ccc([C@H]2CCOC2)cc1F)c1cc(Cl)cc2c1cnn2C1CNC1

>  <inchikey>  (275) 
GOOLARLMSBNRNU-ZDUSSCGKSA-N

>  <alias>  (275) 
Z4861a

$$$$
Z4872a
     RDKit          3D

 30 34  0  0  0  0  0  0  0  0999 V2000
  -10.5890    3.9890  -18.2780 Cl  0  0  0  0  0  0  0  0  0  0  0  0
   -9.0990    4.3870  -17.4730 C   0  0  0  0  0  0  0  0  0  0  0  0
   -7.9750    4.6350  -18.2370 C   0  0  0  0  0  0  0  0  0  0  0  0
   -6.8370    5.0620  -17.5690 C   0  0  0  0  0  0  0  0  0  0  0  0
   -6.7950    5.2490  -16.1780 C   0  0  0  0  0  0  0  0  0  0  0  0
   -5.4660    5.6700  -15.9150 C   0  0  0  0  0  0  0  0  0  0  0  0
   -4.7530    5.7350  -17.0220 N   0  0  0  0  0  0  0  0  0  0  0  0
   -5.5920    5.3640  -18.0380 N   0  0  0  0  0  0  0  0  0  0  0  0
   -5.1060    5.3260  -19.4190 C   0  0  2  0  0  0  0  0  0  0  0  0
   -3.5980    5.0960  -19.6540 C   0  0  0  0  0  0  0  0  0  0  0  0
   -4.9170    6.6710  -20.1500 C   0  0  0  0  0  0  0  0  0  0  0  0
   -3.6850    6.0960  -20.7420 N   0  0  0  0  0  0  0  0  0  0  0  0
   -9.1000    4.5220  -16.0940 C   0  0  0  0  0  0  0  0  0  0  0  0
   -7.9570    4.9760  -15.4360 C   0  0  0  0  0  0  0  0  0  0  0  0
   -8.0260    5.2540  -13.9640 C   0  0  0  0  0  0  0  0  0  0  0  0
   -7.5070    6.2660  -13.4980 O   0  0  0  0  0  0  0  0  0  0  0  0
   -8.6110    4.2880  -13.2070 N   0  0  0  0  0  0  0  0  0  0  0  0
   -8.6540    4.2030  -11.7890 C   0  0  0  0  0  0  0  0  0  0  0  0
   -8.5910    5.3440  -10.9960 C   0  0  0  0  0  0  0  0  0  0  0  0
   -8.5540    5.1970   -9.6320 C   0  0  0  0  0  0  0  0  0  0  0  0
   -8.6760    6.3060   -8.8690 F   0  0  0  0  0  0  0  0  0  0  0  0
   -8.5180    3.9440   -8.9950 C   0  0  0  0  0  0  0  0  0  0  0  0
   -8.6240    2.8210   -9.8090 C   0  0  0  0  0  0  0  0  0  0  0  0
   -8.6970    2.9480  -11.1880 C   0  0  0  0  0  0  0  0  0  0  0  0
   -8.2700    3.8460   -7.6010 N   0  0  0  0  0  0  0  0  0  0  0  0
   -9.4550    3.7590   -6.7460 C   0  0  0  0  0  0  0  0  0  0  0  0
   -9.0890    3.2870   -5.3520 C   0  0  0  0  0  0  0  0  0  0  0  0
   -8.0230    4.1790   -4.7330 C   0  0  0  0  0  0  0  0  0  0  0  0
   -6.8120    4.2840   -5.6440 C   0  0  0  0  0  0  0  0  0  0  0  0
   -7.2150    4.7080   -7.0480 C   0  0  0  0  0  0  0  0  0  0  0  0
  2  1  1  0
  3  2  2  0
  4  3  1  0
  5  4  2  0
  6  5  1  0
  7  6  2  0
  8  4  1  0
  8  7  1  0
  9  8  1  1
 10  9  1  0
 11  9  1  0
 12 10  1  0
 12 11  1  0
 13  2  1  0
 14 13  2  0
 14  5  1  0
 15 14  1  0
 16 15  2  0
 17 15  1  0
 18 17  1  0
 19 18  2  0
 20 19  1  0
 21 20  1  0
 22 20  2  0
 23 22  1  0
 24 18  1  0
 24 23  2  0
 25 22  1  0
 26 25  1  0
 27 26  1  0
 28 27  1  0
 29 28  1  0
 30 29  1  0
 30 25  1  0
M  END
>  <smiles>  (276) 
O=C(Nc1ccc(N2CCCCC2)c(F)c1)c1cc(Cl)cc2c1cnn2C1CNC1

>  <inchikey>  (276) 
HKVUGDVRBONENU-UHFFFAOYSA-N

>  <alias>  (276) 
Z4872a

$$$$
Z4886a
     RDKit          3D

 25 28  0  0  0  0  0  0  0  0999 V2000
  -10.4700    3.7880  -18.3070 Cl  0  0  0  0  0  0  0  0  0  0  0  0
   -8.9580    4.2270  -17.5650 C   0  0  0  0  0  0  0  0  0  0  0  0
   -7.8780    4.5130  -18.3810 C   0  0  0  0  0  0  0  0  0  0  0  0
   -6.7160    4.9500  -17.7640 C   0  0  0  0  0  0  0  0  0  0  0  0
   -6.6080    5.1130  -16.3750 C   0  0  0  0  0  0  0  0  0  0  0  0
   -5.2700    5.5400  -16.1690 C   0  0  0  0  0  0  0  0  0  0  0  0
   -4.6110    5.6280  -17.3070 N   0  0  0  0  0  0  0  0  0  0  0  0
   -5.4950    5.2670  -18.2880 N   0  0  0  0  0  0  0  0  0  0  0  0
   -5.0640    5.2360  -19.6880 C   0  0  2  0  0  0  0  0  0  0  0  0
   -3.5740    4.9260  -19.9510 C   0  0  0  0  0  0  0  0  0  0  0  0
   -4.8280    6.5830  -20.4040 C   0  0  0  0  0  0  0  0  0  0  0  0
   -3.6060    5.9810  -20.9910 N   0  0  0  0  0  0  0  0  0  0  0  0
   -8.8930    4.3430  -16.1850 C   0  0  0  0  0  0  0  0  0  0  0  0
   -7.7220    4.8070  -15.5780 C   0  0  0  0  0  0  0  0  0  0  0  0
   -7.6780    5.0580  -14.0980 C   0  0  0  0  0  0  0  0  0  0  0  0
   -7.0260    6.0000  -13.6500 O   0  0  0  0  0  0  0  0  0  0  0  0
   -8.3580    4.1830  -13.3130 N   0  0  0  0  0  0  0  0  0  0  0  0
   -8.4350    4.2010  -11.8920 C   0  0  0  0  0  0  0  0  0  0  0  0
   -8.4590    5.4170  -11.2110 C   0  0  0  0  0  0  0  0  0  0  0  0
   -8.5300    5.4360   -9.8180 C   0  0  0  0  0  0  0  0  0  0  0  0
   -8.6440    6.6960   -9.1270 C   0  0  0  0  0  0  0  0  0  0  0  0
   -8.7570    7.7060   -8.6010 N   0  0  0  0  0  0  0  0  0  0  0  0
   -8.5690    4.2410   -9.1070 C   0  0  0  0  0  0  0  0  0  0  0  0
   -8.5540    3.0350   -9.7880 C   0  0  0  0  0  0  0  0  0  0  0  0
   -8.4850    3.0100  -11.1740 C   0  0  0  0  0  0  0  0  0  0  0  0
  2  1  1  0
  3  2  2  0
  4  3  1  0
  5  4  2  0
  6  5  1  0
  7  6  2  0
  8  4  1  0
  8  7  1  0
  9  8  1  1
 10  9  1  0
 11  9  1  0
 12 10  1  0
 12 11  1  0
 13  2  1  0
 14  5  1  0
 14 13  2  0
 15 14  1  0
 16 15  2  0
 17 15  1  0
 18 17  1  0
 19 18  2  0
 20 19  1  0
 21 20  1  0
 22 21  3  0
 23 20  2  0
 24 23  1  0
 25 18  1  0
 25 24  2  0
M  END
>  <smiles>  (277) 
N#Cc1cccc(NC(=O)c2cc(Cl)cc3c2cnn3C2CNC2)c1

>  <inchikey>  (277) 
XVDDLOSILCEWNQ-UHFFFAOYSA-N

>  <alias>  (277) 
Z4886a

$$$$
Z4887a
     RDKit          3D

 24 27  0  0  0  0  0  0  0  0999 V2000
  -10.5340    3.9670  -18.3030 Cl  0  0  0  0  0  0  0  0  0  0  0  0
   -8.9920    4.3240  -17.5810 C   0  0  0  0  0  0  0  0  0  0  0  0
   -7.9200    4.5820  -18.4130 C   0  0  0  0  0  0  0  0  0  0  0  0
   -6.7210    4.9310  -17.8150 C   0  0  0  0  0  0  0  0  0  0  0  0
   -6.5690    5.0430  -16.4240 C   0  0  0  0  0  0  0  0  0  0  0  0
   -5.2000    5.3650  -16.2400 C   0  0  0  0  0  0  0  0  0  0  0  0
   -4.5640    5.4390  -17.3910 N   0  0  0  0  0  0  0  0  0  0  0  0
   -5.4940    5.1780  -18.3590 N   0  0  0  0  0  0  0  0  0  0  0  0
   -5.1040    5.1740  -19.7720 C   0  0  1  0  0  0  0  0  0  0  0  0
   -4.9300    6.5520  -20.4390 C   0  0  0  0  0  0  0  0  0  0  0  0
   -3.6150    4.9230  -20.0950 C   0  0  0  0  0  0  0  0  0  0  0  0
   -3.7080    6.0150  -21.0890 N   0  0  0  0  0  0  0  0  0  0  0  0
   -8.8930    4.3990  -16.1970 C   0  0  0  0  0  0  0  0  0  0  0  0
   -7.6840    4.7860  -15.6080 C   0  0  0  0  0  0  0  0  0  0  0  0
   -7.5940    5.0470  -14.1330 C   0  0  0  0  0  0  0  0  0  0  0  0
   -6.7480    5.8210  -13.6860 O   0  0  0  0  0  0  0  0  0  0  0  0
   -8.4480    4.3570  -13.3440 N   0  0  0  0  0  0  0  0  0  0  0  0
   -8.4830    4.3760  -11.9280 C   0  0  0  0  0  0  0  0  0  0  0  0
   -8.3860    5.5650  -11.2090 C   0  0  0  0  0  0  0  0  0  0  0  0
   -8.4410    5.5550   -9.8260 C   0  0  0  0  0  0  0  0  0  0  0  0
   -8.5970    4.3550   -9.1900 C   0  0  0  0  0  0  0  0  0  0  0  0
   -8.6540    4.3430   -7.8300 F   0  0  0  0  0  0  0  0  0  0  0  0
   -8.6900    3.1640   -9.8590 C   0  0  0  0  0  0  0  0  0  0  0  0
   -8.6260    3.1770  -11.2410 C   0  0  0  0  0  0  0  0  0  0  0  0
  2  1  1  0
  3  2  2  0
  4  3  1  0
  5  4  2  0
  6  5  1  0
  7  6  2  0
  8  4  1  0
  8  7  1  0
  9  8  1  1
 10  9  1  0
 11  9  1  0
 12 11  1  0
 12 10  1  0
 13  2  1  0
 14  5  1  0
 14 13  2  0
 15 14  1  0
 16 15  2  0
 17 15  1  0
 18 17  1  0
 19 18  2  0
 20 19  1  0
 21 20  2  0
 22 21  1  0
 23 21  1  0
 24 18  1  0
 24 23  2  0
M  END
>  <smiles>  (278) 
O=C(Nc1ccc(F)cc1)c1cc(Cl)cc2c1cnn2C1CNC1

>  <inchikey>  (278) 
DUKZPBSXIALOLF-UHFFFAOYSA-N

>  <alias>  (278) 
Z4887a

$$$$
Z4905a
     RDKit          3D

 29 33  0  0  0  0  0  0  0  0999 V2000
  -10.5700    4.0530  -18.2850 Cl  0  0  0  0  0  0  0  0  0  0  0  0
   -9.0420    4.4230  -17.5370 C   0  0  0  0  0  0  0  0  0  0  0  0
   -7.9440    4.6530  -18.3450 C   0  0  0  0  0  0  0  0  0  0  0  0
   -6.7710    5.0510  -17.7230 C   0  0  0  0  0  0  0  0  0  0  0  0
   -6.6690    5.2290  -16.3340 C   0  0  0  0  0  0  0  0  0  0  0  0
   -5.3120    5.5860  -16.1180 C   0  0  0  0  0  0  0  0  0  0  0  0
   -4.6390    5.6270  -17.2500 N   0  0  0  0  0  0  0  0  0  0  0  0
   -5.5330    5.3090  -18.2370 N   0  0  0  0  0  0  0  0  0  0  0  0
   -5.1130    5.3100  -19.6420 C   0  0  1  0  0  0  0  0  0  0  0  0
   -5.0070    6.6830  -20.3330 C   0  0  0  0  0  0  0  0  0  0  0  0
   -3.6070    5.1330  -19.9310 C   0  0  0  0  0  0  0  0  0  0  0  0
   -3.7370    6.2120  -20.9350 N   0  0  0  0  0  0  0  0  0  0  0  0
   -8.9840    4.5540  -16.1580 C   0  0  0  0  0  0  0  0  0  0  0  0
   -7.8030    4.9850  -15.5500 C   0  0  0  0  0  0  0  0  0  0  0  0
   -7.7810    5.2470  -14.0770 C   0  0  0  0  0  0  0  0  0  0  0  0
   -7.1000    6.1580  -13.6100 O   0  0  0  0  0  0  0  0  0  0  0  0
   -8.5050    4.3890  -13.3240 N   0  0  0  0  0  0  0  0  0  0  0  0
   -8.5790    4.3660  -11.9130 C   0  0  0  0  0  0  0  0  0  0  0  0
   -8.7030    3.1480  -11.2550 C   0  0  0  0  0  0  0  0  0  0  0  0
   -8.7390    3.1010   -9.8740 C   0  0  0  0  0  0  0  0  0  0  0  0
   -8.6670    4.2770   -9.1410 C   0  0  0  0  0  0  0  0  0  0  0  0
   -8.5170    5.4920   -9.7840 C   0  0  0  0  0  0  0  0  0  0  0  0
   -8.4820    5.5360  -11.1660 C   0  0  0  0  0  0  0  0  0  0  0  0
   -8.8710    4.3310   -7.7800 O   0  0  0  0  0  0  0  0  0  0  0  0
   -8.1460    3.3970   -7.0120 C   0  0  2  0  0  0  0  0  0  0  0  0
   -8.8830    2.1350   -6.3100 C   0  0  1  0  0  0  0  0  0  0  0  0
   -9.6540    2.1260   -7.4420 F   0  0  0  0  0  0  0  0  0  0  0  0
  -10.0450    1.4890   -5.9700 F   0  0  0  0  0  0  0  0  0  0  0  0
   -8.5390    3.3830   -5.6040 C   0  0  0  0  0  0  0  0  0  0  0  0
  2  1  1  0
  3  2  2  0
  4  3  1  0
  5  4  2  0
  6  5  1  0
  7  6  2  0
  8  4  1  0
  8  7  1  0
  9  8  1  1
 10  9  1  0
 11  9  1  0
 12 11  1  0
 12 10  1  0
 13  2  1  0
 14 13  2  0
 14  5  1  0
 15 14  1  0
 16 15  2  0
 17 15  1  0
 18 17  1  0
 19 18  2  0
 20 19  1  0
 21 20  2  0
 22 21  1  0
 23 18  1  0
 23 22  2  0
 24 21  1  0
 25 24  1  6
 26 25  1  0
 26 27  1  1
 28 26  1  0
 29 26  1  0
 29 25  1  0
M  END
>  <smiles>  (279) 
O=C(Nc1ccc(O[C@H]2CC2(F)F)cc1)c1cc(Cl)cc2c1cnn2C1CNC1

>  <inchikey>  (279) 
JUIBLBDMXCFSJM-SFHVURJKSA-N

>  <alias>  (279) 
Z4905a

$$$$
Z4590a
     RDKit          3D

 30 34  0  0  0  0  0  0  0  0999 V2000
  -10.6370    4.0920  -18.1370 Cl  0  0  0  0  0  0  0  0  0  0  0  0
   -9.0990    4.4150  -17.3710 C   0  0  0  0  0  0  0  0  0  0  0  0
   -8.0010    4.6570  -18.1790 C   0  0  0  0  0  0  0  0  0  0  0  0
   -6.8010    4.9510  -17.5520 C   0  0  0  0  0  0  0  0  0  0  0  0
   -6.6700    5.0300  -16.1570 C   0  0  0  0  0  0  0  0  0  0  0  0
   -5.2950    5.3100  -15.9440 C   0  0  0  0  0  0  0  0  0  0  0  0
   -4.6390    5.3980  -17.0840 N   0  0  0  0  0  0  0  0  0  0  0  0
   -5.5590    5.1780  -18.0720 N   0  0  0  0  0  0  0  0  0  0  0  0
   -5.1550    5.2100  -19.4820 C   0  0  1  0  0  0  0  0  0  0  0  0
   -5.0130    6.6110  -20.1130 C   0  0  0  0  0  0  0  0  0  0  0  0
   -3.6570    5.0170  -19.8050 C   0  0  0  0  0  0  0  0  0  0  0  0
   -3.7710    6.1380  -20.7670 N   0  0  0  0  0  0  0  0  0  0  0  0
   -9.0240    4.4720  -15.9830 C   0  0  0  0  0  0  0  0  0  0  0  0
   -7.8110    4.8030  -15.3590 C   0  0  0  0  0  0  0  0  0  0  0  0
   -7.7090    5.0200  -13.8740 C   0  0  0  0  0  0  0  0  0  0  0  0
   -6.8390    5.7540  -13.4090 O   0  0  0  0  0  0  0  0  0  0  0  0
   -8.6020    4.3660  -13.0890 N   0  0  0  0  0  0  0  0  0  0  0  0
   -8.6370    4.4130  -11.6680 C   0  0  0  0  0  0  0  0  0  0  0  0
   -8.8060    3.2410  -10.9320 C   0  0  0  0  0  0  0  0  0  0  0  0
   -8.7960    3.2780   -9.5410 C   0  0  0  0  0  0  0  0  0  0  0  0
   -8.9340    2.1620   -8.5480 C   0  0  0  0  0  0  0  0  0  0  0  0
   -8.4910    2.7900   -7.2840 N   0  0  0  0  0  0  0  0  0  0  0  0
   -9.1210    2.2010   -6.0900 C   0  0  0  0  0  0  0  0  0  0  0  0
  -10.6820    2.5460   -6.0510 C   0  0  1  0  0  0  0  0  0  0  0  0
  -11.4040    1.3960   -6.1350 F   0  0  0  0  0  0  0  0  0  0  0  0
  -10.9680    3.0680   -4.8280 F   0  0  0  0  0  0  0  0  0  0  0  0
   -8.6530    4.2610   -7.3940 C   0  0  0  0  0  0  0  0  0  0  0  0
   -8.6300    4.4860   -8.8790 C   0  0  0  0  0  0  0  0  0  0  0  0
   -8.4670    5.6590   -9.6110 C   0  0  0  0  0  0  0  0  0  0  0  0
   -8.4680    5.6240  -10.9970 C   0  0  0  0  0  0  0  0  0  0  0  0
  2  1  1  0
  3  2  2  0
  4  3  1  0
  5  4  2  0
  6  5  1  0
  7  6  2  0
  8  4  1  0
  8  7  1  0
  9  8  1  1
 10  9  1  0
 11  9  1  0
 12 11  1  0
 12 10  1  0
 13  2  1  0
 14 13  2  0
 14  5  1  0
 15 14  1  0
 16 15  2  0
 17 15  1  0
 18 17  1  0
 19 18  2  0
 20 19  1  0
 21 20  1  0
 22 21  1  0
 23 22  1  0
 24 23  1  0
 24 25  1  1
 26 24  1  0
 27 22  1  0
 28 27  1  0
 28 20  2  0
 29 28  1  0
 30 18  1  0
 30 29  2  0
M  END
>  <smiles>  (280) 
O=C(Nc1ccc2c(c1)CN(CC(F)F)C2)c1cc(Cl)cc2c1cnn2C1CNC1

>  <inchikey>  (280) 
QWEOQFKKAVAVDN-UHFFFAOYSA-N

>  <alias>  (280) 
Z4590a

$$$$
Z4926a
     RDKit          3D

 29 33  0  0  0  0  0  0  0  0999 V2000
   -9.9410    3.9950  -17.9560 Cl  0  0  0  0  0  0  0  0  0  0  0  0
   -8.5200    4.2920  -16.9970 C   0  0  0  0  0  0  0  0  0  0  0  0
   -8.5970    4.2260  -15.6150 C   0  0  0  0  0  0  0  0  0  0  0  0
   -7.3170    4.5980  -17.6320 C   0  0  0  0  0  0  0  0  0  0  0  0
   -6.1640    4.8300  -16.8600 C   0  0  0  0  0  0  0  0  0  0  0  0
   -5.1320    5.0890  -17.8310 C   0  0  0  0  0  0  0  0  0  0  0  0
   -3.6700    5.3370  -17.5530 C   0  0  0  0  0  0  0  0  0  0  0  0
   -3.2600    6.8120  -17.6840 C   0  0  2  0  0  0  0  0  0  0  0  0
   -1.7820    7.0170  -17.3520 C   0  0  0  0  0  0  0  0  0  0  0  0
   -1.4490    8.4770  -17.6300 C   0  0  0  0  0  0  0  0  0  0  0  0
   -2.2740    9.4020  -16.8070 N   0  0  0  0  0  0  0  0  0  0  0  0
   -3.7200    9.1790  -17.0170 C   0  0  0  0  0  0  0  0  0  0  0  0
   -4.1120    7.7230  -16.7960 C   0  0  0  0  0  0  0  0  0  0  0  0
   -5.6210    5.0450  -19.0530 N   0  0  0  0  0  0  0  0  0  0  0  0
   -6.9540    4.7390  -18.9300 N   0  0  0  0  0  0  0  0  0  0  0  0
   -6.2500    4.7750  -15.4660 C   0  0  0  0  0  0  0  0  0  0  0  0
   -7.4640    4.4850  -14.8410 C   0  0  0  0  0  0  0  0  0  0  0  0
   -7.4360    4.5880  -13.3450 C   0  0  0  0  0  0  0  0  0  0  0  0
   -6.5560    5.2340  -12.7780 O   0  0  0  0  0  0  0  0  0  0  0  0
   -8.3930    3.9090  -12.6610 N   0  0  0  0  0  0  0  0  0  0  0  0
   -8.5010    3.8770  -11.2390 C   0  0  0  0  0  0  0  0  0  0  0  0
   -8.6930    2.6810  -10.5500 C   0  0  0  0  0  0  0  0  0  0  0  0
   -8.8000    2.6750   -9.1600 C   0  0  0  0  0  0  0  0  0  0  0  0
   -9.1080    1.5460   -8.2190 C   0  0  0  0  0  0  0  0  0  0  0  0
   -8.8360    2.1430   -6.9000 N   0  0  0  0  0  0  0  0  0  0  0  0
   -8.8120    3.6100   -6.9780 C   0  0  0  0  0  0  0  0  0  0  0  0
   -8.6730    3.8640   -8.4510 C   0  0  0  0  0  0  0  0  0  0  0  0
   -8.4690    5.0590   -9.1350 C   0  0  0  0  0  0  0  0  0  0  0  0
   -8.3950    5.0690  -10.5200 C   0  0  0  0  0  0  0  0  0  0  0  0
  2  1  1  0
  3  2  2  0
  4  2  1  0
  5  4  2  0
  6  5  1  0
  7  6  1  0
  8  7  1  1
  9  8  1  0
 10  9  1  0
 11 10  1  0
 12 11  1  0
 13 12  1  0
 13  8  1  0
 14  6  2  0
 15 14  1  0
 15  4  1  0
 16  5  1  0
 17 16  2  0
 17  3  1  0
 18 17  1  0
 19 18  2  0
 20 18  1  0
 21 20  1  0
 22 21  2  0
 23 22  1  0
 24 23  1  0
 25 24  1  0
 26 25  1  0
 27 26  1  0
 27 23  2  0
 28 27  1  0
 29 21  1  0
 29 28  2  0
M  END
>  <smiles>  (281) 
O=C(Nc1ccc2c(c1)CNC2)c1cc(Cl)c2[nH]nc(CC3CCNCC3)c2c1

>  <inchikey>  (281) 
KNPJGTVOUOTEPV-UHFFFAOYSA-N

>  <alias>  (281) 
Z4926a

$$$$
Z4931a
     RDKit          3D

 26 30  0  0  0  0  0  0  0  0999 V2000
   -6.4620    5.3890  -12.8450 O   0  0  0  0  0  0  0  0  0  0  0  0
   -7.3170    4.7040  -13.4040 C   0  0  0  0  0  0  0  0  0  0  0  0
   -7.3790    4.6060  -14.8970 C   0  0  0  0  0  0  0  0  0  0  0  0
   -8.5590    4.2170  -15.5350 C   0  0  0  0  0  0  0  0  0  0  0  0
   -8.6420    4.1580  -16.9180 C   0  0  0  0  0  0  0  0  0  0  0  0
   -6.2520    4.9310  -15.6540 C   0  0  0  0  0  0  0  0  0  0  0  0
   -6.3090    4.8720  -17.0480 C   0  0  0  0  0  0  0  0  0  0  0  0
   -7.5170    4.4900  -17.6620 C   0  0  0  0  0  0  0  0  0  0  0  0
   -7.3190    4.5190  -19.0220 N   0  0  0  0  0  0  0  0  0  0  0  0
   -6.0310    4.9060  -19.2760 C   0  0  0  0  0  0  0  0  0  0  0  0
   -5.3620    5.1220  -18.1070 C   0  0  0  0  0  0  0  0  0  0  0  0
   -3.9050    5.4700  -17.9550 C   0  0  1  0  0  0  0  0  0  0  0  0
   -3.5120    6.9660  -17.8940 C   0  0  0  0  0  0  0  0  0  0  0  0
   -3.1110    5.2800  -16.6390 C   0  0  0  0  0  0  0  0  0  0  0  0
   -2.4050    6.5460  -16.9870 N   0  0  0  0  0  0  0  0  0  0  0  0
   -1.0620    6.4390  -17.5910 C   0  0  0  0  0  0  0  0  0  0  0  0
   -8.2520    4.0010  -12.7240 N   0  0  0  0  0  0  0  0  0  0  0  0
   -8.3820    3.9650  -11.3100 C   0  0  0  0  0  0  0  0  0  0  0  0
   -8.6420    2.7690  -10.6450 C   0  0  0  0  0  0  0  0  0  0  0  0
   -8.7340    2.7460   -9.2540 C   0  0  0  0  0  0  0  0  0  0  0  0
   -9.0010    1.5930   -8.3300 C   0  0  0  0  0  0  0  0  0  0  0  0
   -8.7580    2.1830   -7.0040 N   0  0  0  0  0  0  0  0  0  0  0  0
   -8.6570    3.6430   -7.0560 C   0  0  0  0  0  0  0  0  0  0  0  0
   -8.5740    3.9210   -8.5280 C   0  0  0  0  0  0  0  0  0  0  0  0
   -8.3400    5.1190   -9.1940 C   0  0  0  0  0  0  0  0  0  0  0  0
   -8.2350    5.1410  -10.5780 C   0  0  0  0  0  0  0  0  0  0  0  0
  2  1  2  0
  3  2  1  0
  4  3  2  0
  5  4  1  0
  6  3  1  0
  7  6  2  0
  8  7  1  0
  8  5  2  0
  9  8  1  0
 10  9  1  0
 11 10  2  0
 11  7  1  0
 12 11  1  1
 13 12  1  0
 14 12  1  0
 15 14  1  0
 15 13  1  0
 16 15  1  0
 17  2  1  0
 18 17  1  0
 19 18  2  0
 20 19  1  0
 21 20  1  0
 22 21  1  0
 23 22  1  0
 24 23  1  0
 24 20  2  0
 25 24  1  0
 26 18  1  0
 26 25  2  0
M  END
>  <smiles>  (282) 
CN1CC(c2c[nH]c3ccc(C(=O)Nc4ccc5c(c4)CNC5)cc23)C1

>  <inchikey>  (282) 
ABRPUQRFDWPXLM-UHFFFAOYSA-N

>  <alias>  (282) 
Z4931a

$$$$
Z4942a
     RDKit          3D

 29 33  0  0  0  0  0  0  0  0999 V2000
   -6.6700    5.5710  -13.0900 O   0  0  0  0  0  0  0  0  0  0  0  0
   -7.4490    4.7610  -13.5860 C   0  0  0  0  0  0  0  0  0  0  0  0
   -8.2980    3.9930  -12.8550 N   0  0  0  0  0  0  0  0  0  0  0  0
   -8.4660    4.0130  -11.4420 C   0  0  0  0  0  0  0  0  0  0  0  0
   -8.7350    2.8350  -10.7500 C   0  0  0  0  0  0  0  0  0  0  0  0
   -8.8470    2.8430   -9.3600 C   0  0  0  0  0  0  0  0  0  0  0  0
   -9.1800    1.7290   -8.4110 C   0  0  0  0  0  0  0  0  0  0  0  0
   -8.8560    2.3260   -7.1210 N   0  0  0  0  0  0  0  0  0  0  0  0
   -8.7520    3.7810   -7.1850 C   0  0  0  0  0  0  0  0  0  0  0  0
   -8.6750    4.0310   -8.6620 C   0  0  0  0  0  0  0  0  0  0  0  0
   -8.4310    5.2130   -9.3540 C   0  0  0  0  0  0  0  0  0  0  0  0
   -8.3300    5.2060  -10.7350 C   0  0  0  0  0  0  0  0  0  0  0  0
   -7.5280    4.6000  -15.0750 C   0  0  0  0  0  0  0  0  0  0  0  0
   -8.7720    4.3400  -15.6500 C   0  0  0  0  0  0  0  0  0  0  0  0
   -6.4350    4.8510  -15.9200 C   0  0  0  0  0  0  0  0  0  0  0  0
   -6.6120    4.8700  -17.3060 C   0  0  0  0  0  0  0  0  0  0  0  0
   -7.8560    4.6410  -17.8750 C   0  0  0  0  0  0  0  0  0  0  0  0
   -8.9490    4.3950  -17.0380 C   0  0  0  0  0  0  0  0  0  0  0  0
  -10.2940    4.3340  -17.6130 C   0  0  0  0  0  0  0  0  0  0  0  0
  -10.5310    4.4220  -18.7940 O   0  0  0  0  0  0  0  0  0  0  0  0
   -5.3620    5.1510  -17.8290 N   0  0  0  0  0  0  0  0  0  0  0  0
   -4.5030    5.2720  -16.7770 C   0  0  0  0  0  0  0  0  0  0  0  0
   -5.1070    5.1070  -15.6050 N   0  0  0  0  0  0  0  0  0  0  0  0
   -3.0600    5.5050  -16.9430 C   0  0  0  0  0  0  0  0  0  0  0  0
   -2.2730    5.8880  -15.8600 C   0  0  0  0  0  0  0  0  0  0  0  0
   -0.9110    6.0920  -16.0200 C   0  0  0  0  0  0  0  0  0  0  0  0
   -0.3230    5.9200  -17.2570 C   0  0  0  0  0  0  0  0  0  0  0  0
   -1.0960    5.5410  -18.3390 C   0  0  0  0  0  0  0  0  0  0  0  0
   -2.4560    5.3340  -18.1860 C   0  0  0  0  0  0  0  0  0  0  0  0
  2  1  2  0
  3  2  1  0
  4  3  1  0
  5  4  2  0
  6  5  1  0
  7  6  1  0
  8  7  1  0
  9  8  1  0
 10  9  1  0
 10  6  2  0
 11 10  1  0
 12  4  1  0
 12 11  2  0
 13  2  1  0
 14 13  2  0
 15 13  1  0
 16 15  2  0
 17 16  1  0
 18 17  2  0
 18 14  1  0
 19 18  1  0
 20 19  2  0
 21 16  1  0
 22 21  1  0
 23 15  1  0
 23 22  2  0
 24 22  1  0
 25 24  2  0
 26 25  1  0
 27 26  2  0
 28 27  1  0
 29 28  2  0
 29 24  1  0
M  END
>  <smiles>  (283) 
O=Cc1cc(C(=O)Nc2ccc3c(c2)CNC3)c2nc(-c3ccccc3)[nH]c2c1

>  <inchikey>  (283) 
DEELMLGDYIAPOB-UHFFFAOYSA-N

>  <alias>  (283) 
Z4942a

$$$$
Z4944a
     RDKit          3D

 28 32  0  0  0  0  0  0  0  0999 V2000
   -9.8200    3.7360  -18.0210 Cl  0  0  0  0  0  0  0  0  0  0  0  0
   -8.4750    4.2510  -17.0500 C   0  0  0  0  0  0  0  0  0  0  0  0
   -8.5650    4.2110  -15.6680 C   0  0  0  0  0  0  0  0  0  0  0  0
   -7.3080    4.6900  -17.6760 C   0  0  0  0  0  0  0  0  0  0  0  0
   -6.2090    5.0900  -16.8940 C   0  0  0  0  0  0  0  0  0  0  0  0
   -5.2250    5.5000  -17.8220 C   0  0  0  0  0  0  0  0  0  0  0  0
   -3.8740    6.0850  -17.5340 C   0  0  2  0  0  0  0  0  0  0  0  0
   -3.6990    7.4610  -18.1930 C   0  0  0  0  0  0  0  0  0  0  0  0
   -2.3350    8.0330  -17.8330 C   0  0  0  0  0  0  0  0  0  0  0  0
   -1.2460    7.1090  -18.2330 N   0  0  0  0  0  0  0  0  0  0  0  0
   -1.4010    5.7860  -17.5790 C   0  0  0  0  0  0  0  0  0  0  0  0
   -2.7340    5.1430  -17.9450 C   0  0  0  0  0  0  0  0  0  0  0  0
   -5.6840    5.3600  -19.0810 N   0  0  0  0  0  0  0  0  0  0  0  0
   -6.9540    4.8670  -18.9720 N   0  0  0  0  0  0  0  0  0  0  0  0
   -6.3050    5.0380  -15.5020 C   0  0  0  0  0  0  0  0  0  0  0  0
   -7.4800    4.6110  -14.8870 C   0  0  0  0  0  0  0  0  0  0  0  0
   -7.4130    4.7110  -13.3930 C   0  0  0  0  0  0  0  0  0  0  0  0
   -6.5700    5.4270  -12.8550 O   0  0  0  0  0  0  0  0  0  0  0  0
   -8.3170    3.9770  -12.6890 N   0  0  0  0  0  0  0  0  0  0  0  0
   -8.4600    3.9610  -11.2740 C   0  0  0  0  0  0  0  0  0  0  0  0
   -8.6560    2.7550  -10.6040 C   0  0  0  0  0  0  0  0  0  0  0  0
   -8.8000    2.7350   -9.2180 C   0  0  0  0  0  0  0  0  0  0  0  0
   -9.0980    1.5860   -8.2990 C   0  0  0  0  0  0  0  0  0  0  0  0
   -8.8210    2.1740   -6.9930 N   0  0  0  0  0  0  0  0  0  0  0  0
   -8.8440    3.6400   -7.0260 C   0  0  0  0  0  0  0  0  0  0  0  0
   -8.7220    3.9180   -8.4960 C   0  0  0  0  0  0  0  0  0  0  0  0
   -8.5310    5.1220   -9.1630 C   0  0  0  0  0  0  0  0  0  0  0  0
   -8.4020    5.1470  -10.5420 C   0  0  0  0  0  0  0  0  0  0  0  0
  2  1  1  0
  3  2  2  0
  4  2  1  0
  5  4  2  0
  6  5  1  0
  7  6  1  6
  8  7  1  0
  9  8  1  0
 10  9  1  0
 11 10  1  0
 12 11  1  0
 12  7  1  0
 13  6  2  0
 14 13  1  0
 14  4  1  0
 15  5  1  0
 16 15  2  0
 16  3  1  0
 17 16  1  0
 18 17  2  0
 19 17  1  0
 20 19  1  0
 21 20  2  0
 22 21  1  0
 23 22  1  0
 24 23  1  0
 25 24  1  0
 26 25  1  0
 26 22  2  0
 27 26  1  0
 28 20  1  0
 28 27  2  0
M  END
>  <smiles>  (284) 
O=C(Nc1ccc2c(c1)CNC2)c1cc(Cl)c2[nH]nc(C3CCNCC3)c2c1

>  <inchikey>  (284) 
IKWPGIXSABXYDQ-UHFFFAOYSA-N

>  <alias>  (284) 
Z4944a

$$$$
Z4951a
     RDKit          3D

 26 30  0  0  0  0  0  0  0  0999 V2000
   -6.6050    5.5560  -12.8120 O   0  0  0  0  0  0  0  0  0  0  0  0
   -7.4380    4.8650  -13.3890 C   0  0  0  0  0  0  0  0  0  0  0  0
   -7.3950    4.7160  -14.8770 C   0  0  0  0  0  0  0  0  0  0  0  0
   -6.1910    5.1190  -15.4510 C   0  0  0  0  0  0  0  0  0  0  0  0
   -6.0850    5.1650  -16.8400 C   0  0  0  0  0  0  0  0  0  0  0  0
   -5.0480    5.6150  -17.6460 N   0  0  0  0  0  0  0  0  0  0  0  0
   -5.5180    5.5290  -18.8760 C   0  0  0  0  0  0  0  0  0  0  0  0
   -4.8260    5.9050  -19.9650 N   0  0  0  0  0  0  0  0  0  0  0  0
   -3.3940    6.2160  -19.9600 C   0  0  2  0  0  0  0  0  0  0  0  0
   -2.9630    7.5530  -19.3250 C   0  0  0  0  0  0  0  0  0  0  0  0
   -2.8480    8.1380  -20.7530 C   0  0  0  0  0  0  0  0  0  0  0  0
   -2.7580    6.6870  -21.2820 C   0  0  0  0  0  0  0  0  0  0  0  0
   -6.7820    5.0420  -18.9410 N   0  0  0  0  0  0  0  0  0  0  0  0
   -7.1710    4.7950  -17.6290 C   0  0  0  0  0  0  0  0  0  0  0  0
   -8.3640    4.3550  -17.0720 C   0  0  0  0  0  0  0  0  0  0  0  0
   -8.4620    4.3200  -15.6880 C   0  0  0  0  0  0  0  0  0  0  0  0
   -8.3890    4.1630  -12.7260 N   0  0  0  0  0  0  0  0  0  0  0  0
   -8.5220    4.1100  -11.3090 C   0  0  0  0  0  0  0  0  0  0  0  0
   -8.8140    2.9160  -10.6520 C   0  0  0  0  0  0  0  0  0  0  0  0
   -8.8590    2.8690   -9.2590 C   0  0  0  0  0  0  0  0  0  0  0  0
   -9.1420    1.7140   -8.3430 C   0  0  0  0  0  0  0  0  0  0  0  0
   -8.8410    2.2690   -7.0210 N   0  0  0  0  0  0  0  0  0  0  0  0
   -8.7150    3.7250   -7.0500 C   0  0  0  0  0  0  0  0  0  0  0  0
   -8.6160    4.0180   -8.5190 C   0  0  0  0  0  0  0  0  0  0  0  0
   -8.3310    5.2110   -9.1720 C   0  0  0  0  0  0  0  0  0  0  0  0
   -8.2850    5.2590  -10.5580 C   0  0  0  0  0  0  0  0  0  0  0  0
  2  1  2  0
  3  2  1  0
  4  3  2  0
  5  4  1  0
  6  5  1  0
  7  6  2  0
  8  7  1  0
  9  8  1  6
 10  9  1  0
 11 10  1  0
 12 11  1  0
 12  9  1  0
 13  7  1  0
 14 13  1  0
 14  5  2  0
 15 14  1  0
 16 15  2  0
 16  3  1  0
 17  2  1  0
 18 17  1  0
 19 18  2  0
 20 19  1  0
 21 20  1  0
 22 21  1  0
 23 22  1  0
 24 23  1  0
 24 20  2  0
 25 24  1  0
 26 18  1  0
 26 25  2  0
M  END
>  <smiles>  (285) 
O=C(Nc1ccc2c(c1)CNC2)c1ccc2[nH]c(NC3CCC3)nc2c1

>  <inchikey>  (285) 
GJBFWIISHCXFEI-UHFFFAOYSA-N

>  <alias>  (285) 
Z4951a

$$$$
Z4954a
     RDKit          3D

 27 31  0  0  0  0  0  0  0  0999 V2000
   -9.7400    3.8240  -18.0260 Cl  0  0  0  0  0  0  0  0  0  0  0  0
   -8.3680    4.2180  -17.0420 C   0  0  0  0  0  0  0  0  0  0  0  0
   -8.4700    4.1430  -15.6640 C   0  0  0  0  0  0  0  0  0  0  0  0
   -7.1830    4.6350  -17.6520 C   0  0  0  0  0  0  0  0  0  0  0  0
   -6.0760    4.9700  -16.8560 C   0  0  0  0  0  0  0  0  0  0  0  0
   -5.0400    5.2820  -17.7980 C   0  0  0  0  0  0  0  0  0  0  0  0
   -3.5830    5.4980  -17.4750 C   0  0  0  0  0  0  0  0  0  0  0  0
   -2.8970    6.6040  -18.2870 C   0  0  1  0  0  0  0  0  0  0  0  0
   -2.4350    7.7760  -17.3880 C   0  0  0  0  0  0  0  0  0  0  0  0
   -1.1300    7.0740  -17.2810 N   0  0  0  0  0  0  0  0  0  0  0  0
   -1.3950    6.2970  -18.5170 C   0  0  0  0  0  0  0  0  0  0  0  0
   -5.4900    5.1950  -19.0310 N   0  0  0  0  0  0  0  0  0  0  0  0
   -6.7980    4.7930  -18.9410 N   0  0  0  0  0  0  0  0  0  0  0  0
   -6.1920    4.9150  -15.4670 C   0  0  0  0  0  0  0  0  0  0  0  0
   -7.3860    4.5140  -14.8680 C   0  0  0  0  0  0  0  0  0  0  0  0
   -7.3730    4.6670  -13.3810 C   0  0  0  0  0  0  0  0  0  0  0  0
   -6.5700    5.4280  -12.8470 O   0  0  0  0  0  0  0  0  0  0  0  0
   -8.2690    3.9240  -12.6820 N   0  0  0  0  0  0  0  0  0  0  0  0
   -8.4250    3.9120  -11.2650 C   0  0  0  0  0  0  0  0  0  0  0  0
   -8.7650    2.7420  -10.5900 C   0  0  0  0  0  0  0  0  0  0  0  0
   -8.8520    2.7310   -9.1970 C   0  0  0  0  0  0  0  0  0  0  0  0
   -9.1200    1.5910   -8.2570 C   0  0  0  0  0  0  0  0  0  0  0  0
   -8.8120    2.1950   -6.9600 N   0  0  0  0  0  0  0  0  0  0  0  0
   -8.7980    3.6520   -7.0100 C   0  0  0  0  0  0  0  0  0  0  0  0
   -8.6170    3.8970   -8.4810 C   0  0  0  0  0  0  0  0  0  0  0  0
   -8.2800    5.0670   -9.1530 C   0  0  0  0  0  0  0  0  0  0  0  0
   -8.1840    5.0760  -10.5370 C   0  0  0  0  0  0  0  0  0  0  0  0
  2  1  1  0
  3  2  2  0
  4  2  1  0
  5  4  2  0
  6  5  1  0
  7  6  1  0
  8  7  1  1
  9  8  1  0
 10  9  1  0
 11 10  1  0
 11  8  1  0
 12  6  2  0
 13 12  1  0
 13  4  1  0
 14  5  1  0
 15 14  2  0
 15  3  1  0
 16 15  1  0
 17 16  2  0
 18 16  1  0
 19 18  1  0
 20 19  2  0
 21 20  1  0
 22 21  1  0
 23 22  1  0
 24 23  1  0
 25 24  1  0
 25 21  2  0
 26 25  1  0
 27 19  1  0
 27 26  2  0
M  END
>  <smiles>  (286) 
O=C(Nc1ccc2c(c1)CNC2)c1cc(Cl)c2[nH]nc(CC3CNC3)c2c1

>  <inchikey>  (286) 
IQIXSNSUUMIWQP-UHFFFAOYSA-N

>  <alias>  (286) 
Z4954a

$$$$
Z4959a
     RDKit          3D

 24 27  0  0  0  0  0  0  0  0999 V2000
  -10.0530    3.8730  -17.6530 F   0  0  0  0  0  0  0  0  0  0  0  0
   -8.8760    4.1770  -17.0380 C   0  0  0  0  0  0  0  0  0  0  0  0
   -8.8490    4.2260  -15.6630 C   0  0  0  0  0  0  0  0  0  0  0  0
   -7.7760    4.4290  -17.8280 C   0  0  0  0  0  0  0  0  0  0  0  0
   -6.5740    4.7540  -17.2000 C   0  0  0  0  0  0  0  0  0  0  0  0
   -5.3560    4.9960  -18.0000 C   0  0  0  0  0  0  0  0  0  0  0  0
   -5.2730    5.2690  -19.3490 C   0  0  0  0  0  0  0  0  0  0  0  0
   -3.9830    5.4620  -19.6450 N   0  0  0  0  0  0  0  0  0  0  0  0
   -3.1950    5.3350  -18.5530 N   0  0  0  0  0  0  0  0  0  0  0  0
   -4.0220    5.0430  -17.5550 C   0  0  0  0  0  0  0  0  0  0  0  0
   -6.5160    4.8210  -15.8070 C   0  0  0  0  0  0  0  0  0  0  0  0
   -7.6490    4.5600  -15.0380 C   0  0  0  0  0  0  0  0  0  0  0  0
   -7.5240    4.7210  -13.5540 C   0  0  0  0  0  0  0  0  0  0  0  0
   -6.6680    5.4610  -13.0680 O   0  0  0  0  0  0  0  0  0  0  0  0
   -8.4010    4.0150  -12.8020 N   0  0  0  0  0  0  0  0  0  0  0  0
   -8.4990    4.0290  -11.3820 C   0  0  0  0  0  0  0  0  0  0  0  0
   -8.7060    2.8290  -10.7090 C   0  0  0  0  0  0  0  0  0  0  0  0
   -8.7870    2.8060   -9.3170 C   0  0  0  0  0  0  0  0  0  0  0  0
   -9.0950    1.6670   -8.3880 C   0  0  0  0  0  0  0  0  0  0  0  0
   -8.7370    2.2400   -7.0860 N   0  0  0  0  0  0  0  0  0  0  0  0
   -8.7830    3.7100   -7.1260 C   0  0  0  0  0  0  0  0  0  0  0  0
   -8.6410    3.9850   -8.5950 C   0  0  0  0  0  0  0  0  0  0  0  0
   -8.4270    5.1850   -9.2650 C   0  0  0  0  0  0  0  0  0  0  0  0
   -8.3680    5.2110  -10.6520 C   0  0  0  0  0  0  0  0  0  0  0  0
  2  1  1  0
  3  2  2  0
  4  2  1  0
  5  4  2  0
  6  5  1  0
  7  6  1  0
  8  7  2  0
  9  8  1  0
 10  9  1  0
 10  6  2  0
 11  5  1  0
 12 11  2  0
 12  3  1  0
 13 12  1  0
 14 13  2  0
 15 13  1  0
 16 15  1  0
 17 16  2  0
 18 17  1  0
 19 18  1  0
 20 19  1  0
 21 20  1  0
 22 21  1  0
 22 18  2  0
 23 22  1  0
 24 16  1  0
 24 23  2  0
M  END
>  <smiles>  (287) 
O=C(Nc1ccc2c(c1)CNC2)c1cc(F)cc(-c2cn[nH]c2)c1

>  <inchikey>  (287) 
JQVBRWVUKDQFJQ-UHFFFAOYSA-N

>  <alias>  (287) 
Z4959a

$$$$
Z4959b
     RDKit          3D

 24 27  0  0  0  0  0  0  0  0999 V2000
  -10.0660    3.8710  -17.6540 F   0  0  0  0  0  0  0  0  0  0  0  0
   -8.8890    4.1760  -17.0410 C   0  0  0  0  0  0  0  0  0  0  0  0
   -8.8610    4.2250  -15.6660 C   0  0  0  0  0  0  0  0  0  0  0  0
   -7.7890    4.4280  -17.8320 C   0  0  0  0  0  0  0  0  0  0  0  0
   -6.5880    4.7530  -17.2050 C   0  0  0  0  0  0  0  0  0  0  0  0
   -5.3700    4.9960  -18.0060 C   0  0  0  0  0  0  0  0  0  0  0  0
   -5.2880    5.2640  -19.3570 C   0  0  0  0  0  0  0  0  0  0  0  0
   -3.9990    5.4560  -19.6550 N   0  0  0  0  0  0  0  0  0  0  0  0
   -3.2100    5.3330  -18.5640 N   0  0  0  0  0  0  0  0  0  0  0  0
   -4.0350    5.0450  -17.5630 C   0  0  0  0  0  0  0  0  0  0  0  0
   -6.5280    4.8200  -15.8120 C   0  0  0  0  0  0  0  0  0  0  0  0
   -7.6610    4.5590  -15.0420 C   0  0  0  0  0  0  0  0  0  0  0  0
   -7.5310    4.7180  -13.5570 C   0  0  0  0  0  0  0  0  0  0  0  0
   -6.6720    5.4550  -13.0730 O   0  0  0  0  0  0  0  0  0  0  0  0
   -8.4060    4.0120  -12.8030 N   0  0  0  0  0  0  0  0  0  0  0  0
   -8.5000    4.0240  -11.3820 C   0  0  0  0  0  0  0  0  0  0  0  0
   -8.7060    2.8230  -10.7060 C   0  0  0  0  0  0  0  0  0  0  0  0
   -8.7850    2.8020   -9.3140 C   0  0  0  0  0  0  0  0  0  0  0  0
   -9.0910    1.6630   -8.3850 C   0  0  0  0  0  0  0  0  0  0  0  0
   -8.7340    2.2390   -7.0830 N   0  0  0  0  0  0  0  0  0  0  0  0
   -8.7750    3.7100   -7.1230 C   0  0  0  0  0  0  0  0  0  0  0  0
   -8.6380    3.9810   -8.5950 C   0  0  0  0  0  0  0  0  0  0  0  0
   -8.4260    5.1810   -9.2660 C   0  0  0  0  0  0  0  0  0  0  0  0
   -8.3670    5.2060  -10.6530 C   0  0  0  0  0  0  0  0  0  0  0  0
  2  1  1  0
  3  2  2  0
  4  2  1  0
  5  4  2  0
  6  5  1  0
  7  6  1  0
  8  7  2  0
  9  8  1  0
 10  9  1  0
 10  6  2  0
 11  5  1  0
 12 11  2  0
 12  3  1  0
 13 12  1  0
 14 13  2  0
 15 13  1  0
 16 15  1  0
 17 16  2  0
 18 17  1  0
 19 18  1  0
 20 19  1  0
 21 20  1  0
 22 21  1  0
 22 18  2  0
 23 22  1  0
 24 16  1  0
 24 23  2  0
M  END
>  <smiles>  (288) 
O=C(Nc1ccc2c(c1)CNC2)c1cc(F)cc(-c2cn[nH]c2)c1

>  <inchikey>  (288) 
JQVBRWVUKDQFJQ-UHFFFAOYSA-N

>  <alias>  (288) 
Z4959b

$$$$
Z4963a
     RDKit          3D

 22 25  0  0  0  0  0  0  0  0999 V2000
  -10.2480    3.9490  -18.0250 Cl  0  0  0  0  0  0  0  0  0  0  0  0
   -8.7460    4.2410  -17.1900 C   0  0  0  0  0  0  0  0  0  0  0  0
   -8.7300    4.2200  -15.8010 C   0  0  0  0  0  0  0  0  0  0  0  0
   -7.6140    4.5100  -17.9380 C   0  0  0  0  0  0  0  0  0  0  0  0
   -6.4350    4.7730  -17.2550 C   0  0  0  0  0  0  0  0  0  0  0  0
   -6.3780    4.7450  -15.8590 C   0  0  0  0  0  0  0  0  0  0  0  0
   -5.0720    4.9400  -15.4290 N   0  0  0  0  0  0  0  0  0  0  0  0
   -4.3890    5.0830  -16.5500 C   0  0  0  0  0  0  0  0  0  0  0  0
   -5.1450    4.9890  -17.6690 N   0  0  0  0  0  0  0  0  0  0  0  0
   -7.5370    4.4800  -15.1140 C   0  0  0  0  0  0  0  0  0  0  0  0
   -7.4560    4.5800  -13.6140 C   0  0  0  0  0  0  0  0  0  0  0  0
   -6.5750    5.2590  -13.0920 O   0  0  0  0  0  0  0  0  0  0  0  0
   -8.3830    3.9030  -12.8870 N   0  0  0  0  0  0  0  0  0  0  0  0
   -8.4920    3.9080  -11.4670 C   0  0  0  0  0  0  0  0  0  0  0  0
   -8.7260    2.7350  -10.7520 C   0  0  0  0  0  0  0  0  0  0  0  0
   -8.8070    2.7620   -9.3590 C   0  0  0  0  0  0  0  0  0  0  0  0
   -9.0240    1.6400   -8.3850 C   0  0  0  0  0  0  0  0  0  0  0  0
   -8.8800    2.2900   -7.0910 N   0  0  0  0  0  0  0  0  0  0  0  0
   -8.7870    3.7480   -7.2000 C   0  0  0  0  0  0  0  0  0  0  0  0
   -8.6540    3.9620   -8.6810 C   0  0  0  0  0  0  0  0  0  0  0  0
   -8.4130    5.1310   -9.3910 C   0  0  0  0  0  0  0  0  0  0  0  0
   -8.3330    5.1080  -10.7750 C   0  0  0  0  0  0  0  0  0  0  0  0
  2  1  1  0
  3  2  2  0
  4  2  1  0
  5  4  2  0
  6  5  1  0
  7  6  1  0
  8  7  2  0
  9  5  1  0
  9  8  1  0
 10  6  2  0
 10  3  1  0
 11 10  1  0
 12 11  2  0
 13 11  1  0
 14 13  1  0
 15 14  2  0
 16 15  1  0
 17 16  1  0
 18 17  1  0
 19 18  1  0
 20 19  1  0
 20 16  2  0
 21 20  1  0
 22 14  1  0
 22 21  2  0
M  END
>  <smiles>  (289) 
O=C(Nc1ccc2c(c1)CNC2)c1cc(Cl)cc2[nH]cnc12

>  <inchikey>  (289) 
VEJQQQWPFLPTEJ-UHFFFAOYSA-N

>  <alias>  (289) 
Z4963a

$$$$
Z4966a
     RDKit          3D

 33 37  0  0  0  0  0  0  0  0999 V2000
  -10.2020    3.8740  -17.6880 F   0  0  0  0  0  0  0  0  0  0  0  0
   -8.9960    4.1900  -17.1440 C   0  0  0  0  0  0  0  0  0  0  0  0
   -7.9610    4.4820  -18.0000 C   0  0  0  0  0  0  0  0  0  0  0  0
   -6.7450    4.8360  -17.4300 C   0  0  0  0  0  0  0  0  0  0  0  0
   -6.5890    4.8840  -16.0420 C   0  0  0  0  0  0  0  0  0  0  0  0
   -5.2640    5.1480  -15.7200 N   0  0  0  0  0  0  0  0  0  0  0  0
   -5.4820    5.0710  -17.9460 N   0  0  0  0  0  0  0  0  0  0  0  0
   -4.6400    5.2450  -16.8870 C   0  0  0  0  0  0  0  0  0  0  0  0
   -3.1940    5.4800  -17.0310 C   0  0  0  0  0  0  0  0  0  0  0  0
   -2.4220    5.8280  -15.9270 C   0  0  0  0  0  0  0  0  0  0  0  0
   -1.0520    5.9870  -16.0470 C   0  0  0  0  0  0  0  0  0  0  0  0
   -2.5620    5.3170  -18.2600 C   0  0  0  0  0  0  0  0  0  0  0  0
   -1.1910    5.4750  -18.3730 C   0  0  0  0  0  0  0  0  0  0  0  0
   -0.4140    5.8010  -17.2670 C   0  0  0  0  0  0  0  0  0  0  0  0
    1.0890    5.9010  -17.3760 C   0  0  0  0  0  0  0  0  0  0  0  0
    1.6680    7.1060  -16.6240 C   0  0  0  0  0  0  0  0  0  0  0  0
    1.8120    8.3210  -17.5090 C   0  0  0  0  0  0  0  0  0  0  0  0
    2.8880    8.9240  -17.5910 O   0  0  0  0  0  0  0  0  0  0  0  0
    0.7290    8.6840  -18.1820 N   0  0  0  0  0  0  0  0  0  0  0  0
   -8.8930    4.2300  -15.7660 C   0  0  0  0  0  0  0  0  0  0  0  0
   -7.6730    4.6000  -15.1970 C   0  0  0  0  0  0  0  0  0  0  0  0
   -7.5560    4.7720  -13.7080 C   0  0  0  0  0  0  0  0  0  0  0  0
   -6.7280    5.5470  -13.2320 O   0  0  0  0  0  0  0  0  0  0  0  0
   -8.4000    4.0320  -12.9440 N   0  0  0  0  0  0  0  0  0  0  0  0
   -8.4880    4.0390  -11.5230 C   0  0  0  0  0  0  0  0  0  0  0  0
   -8.7420    2.8580  -10.8270 C   0  0  0  0  0  0  0  0  0  0  0  0
   -8.8450    2.8670   -9.4360 C   0  0  0  0  0  0  0  0  0  0  0  0
   -9.1550    1.7490   -8.4840 C   0  0  0  0  0  0  0  0  0  0  0  0
   -8.9430    2.3670   -7.1860 N   0  0  0  0  0  0  0  0  0  0  0  0
   -8.8260    3.8210   -7.2640 C   0  0  0  0  0  0  0  0  0  0  0  0
   -8.6770    4.0560   -8.7390 C   0  0  0  0  0  0  0  0  0  0  0  0
   -8.4170    5.2340   -9.4310 C   0  0  0  0  0  0  0  0  0  0  0  0
   -8.3270    5.2290  -10.8140 C   0  0  0  0  0  0  0  0  0  0  0  0
  2  1  1  0
  3  2  2  0
  4  3  1  0
  5  4  2  0
  6  5  1  0
  7  4  1  0
  8  7  1  0
  8  6  2  0
  9  8  1  0
 10  9  2  0
 11 10  1  0
 12  9  1  0
 13 12  2  0
 14 13  1  0
 14 11  2  0
 15 14  1  0
 16 15  1  0
 17 16  1  0
 18 17  2  0
 19 17  1  0
 20  2  1  0
 21 20  2  0
 21  5  1  0
 22 21  1  0
 23 22  2  0
 24 22  1  0
 25 24  1  0
 26 25  2  0
 27 26  1  0
 28 27  1  0
 29 28  1  0
 30 29  1  0
 31 30  1  0
 31 27  2  0
 32 31  1  0
 33 25  1  0
 33 32  2  0
M  END
>  <smiles>  (290) 
NC(=O)CCc1ccc(-c2nc3c(C(=O)Nc4ccc5c(c4)CNC5)cc(F)cc3[nH]2)cc1

>  <inchikey>  (290) 
TWWOOYBCAMKYQX-UHFFFAOYSA-N

>  <alias>  (290) 
Z4966a

$$$$
Z4971a
     RDKit          3D

 23 26  0  0  0  0  0  0  0  0999 V2000
   -6.5640    5.4430  -12.8790 O   0  0  0  0  0  0  0  0  0  0  0  0
   -7.3990    4.7230  -13.4200 C   0  0  0  0  0  0  0  0  0  0  0  0
   -7.4270    4.5780  -14.9120 C   0  0  0  0  0  0  0  0  0  0  0  0
   -8.5430    4.2310  -15.6780 C   0  0  0  0  0  0  0  0  0  0  0  0
   -8.4620    4.2530  -17.0620 C   0  0  0  0  0  0  0  0  0  0  0  0
   -9.8380    3.8210  -18.0260 Cl  0  0  0  0  0  0  0  0  0  0  0  0
   -6.2280    4.9070  -15.5450 C   0  0  0  0  0  0  0  0  0  0  0  0
   -6.1350    4.9250  -16.9420 C   0  0  0  0  0  0  0  0  0  0  0  0
   -7.2790    4.6130  -17.7000 C   0  0  0  0  0  0  0  0  0  0  0  0
   -6.9540    4.7320  -19.0300 N   0  0  0  0  0  0  0  0  0  0  0  0
   -5.6360    5.0910  -19.1350 C   0  0  0  0  0  0  0  0  0  0  0  0
   -5.0820    5.2050  -17.8830 C   0  0  0  0  0  0  0  0  0  0  0  0
   -3.6350    5.4560  -17.5720 C   0  0  0  0  0  0  0  0  0  0  0  0
   -8.3140    4.0070  -12.7210 N   0  0  0  0  0  0  0  0  0  0  0  0
   -8.4490    3.9910  -11.3020 C   0  0  0  0  0  0  0  0  0  0  0  0
   -8.7320    2.8010  -10.6370 C   0  0  0  0  0  0  0  0  0  0  0  0
   -8.8230    2.7780   -9.2460 C   0  0  0  0  0  0  0  0  0  0  0  0
   -9.0870    1.6250   -8.3230 C   0  0  0  0  0  0  0  0  0  0  0  0
   -8.8150    2.2140   -7.0030 N   0  0  0  0  0  0  0  0  0  0  0  0
   -8.7940    3.6770   -7.0520 C   0  0  0  0  0  0  0  0  0  0  0  0
   -8.6360    3.9470   -8.5210 C   0  0  0  0  0  0  0  0  0  0  0  0
   -8.3590    5.1360   -9.1830 C   0  0  0  0  0  0  0  0  0  0  0  0
   -8.2670    5.1600  -10.5660 C   0  0  0  0  0  0  0  0  0  0  0  0
  2  1  2  0
  3  2  1  0
  4  3  2  0
  5  4  1  0
  6  5  1  0
  7  3  1  0
  8  7  2  0
  9  8  1  0
  9  5  2  0
 10  9  1  0
 11 10  1  0
 12 11  2  0
 12  8  1  0
 13 12  1  0
 14  2  1  0
 15 14  1  0
 16 15  2  0
 17 16  1  0
 18 17  1  0
 19 18  1  0
 20 19  1  0
 21 20  1  0
 21 17  2  0
 22 21  1  0
 23 15  1  0
 23 22  2  0
M  END
>  <smiles>  (291) 
Cc1c[nH]c2c(Cl)cc(C(=O)Nc3ccc4c(c3)CNC4)cc12

>  <inchikey>  (291) 
DOFQCNZNSJIRIS-UHFFFAOYSA-N

>  <alias>  (291) 
Z4971a

$$$$
Z4978a
     RDKit          3D

 34 39  0  0  0  0  0  0  0  0999 V2000
  -10.4350    4.0630  -17.6710 F   0  0  0  0  0  0  0  0  0  0  0  0
   -9.2550    4.3920  -17.0760 C   0  0  0  0  0  0  0  0  0  0  0  0
   -8.2050    4.7240  -17.8940 C   0  0  0  0  0  0  0  0  0  0  0  0
   -7.0200    5.0260  -17.2450 C   0  0  0  0  0  0  0  0  0  0  0  0
   -6.8690    5.0020  -15.8610 C   0  0  0  0  0  0  0  0  0  0  0  0
   -5.5430    5.2590  -15.5050 N   0  0  0  0  0  0  0  0  0  0  0  0
   -5.7780    5.3550  -17.7450 N   0  0  0  0  0  0  0  0  0  0  0  0
   -5.6020    5.7080  -19.1590 C   0  0  2  0  0  0  0  0  0  0  0  0
   -4.3600    5.3130  -19.9700 C   0  0  0  0  0  0  0  0  0  0  0  0
   -4.6760    6.5320  -20.7610 N   0  0  0  0  0  0  0  0  0  0  0  0
   -5.2720    7.1590  -19.5580 C   0  0  0  0  0  0  0  0  0  0  0  0
   -4.9200    5.4330  -16.6560 C   0  0  0  0  0  0  0  0  0  0  0  0
   -3.4530    5.5630  -16.7220 C   0  0  0  0  0  0  0  0  0  0  0  0
   -2.7530    5.9900  -15.6050 C   0  0  0  0  0  0  0  0  0  0  0  0
   -1.3990    6.2270  -15.7460 C   0  0  0  0  0  0  0  0  0  0  0  0
   -2.8560    5.3390  -17.8960 N   0  0  0  0  0  0  0  0  0  0  0  0
   -1.5350    5.5690  -18.0400 N   0  0  0  0  0  0  0  0  0  0  0  0
   -0.8500    6.0030  -17.0090 C   0  0  0  0  0  0  0  0  0  0  0  0
    0.4670    6.2480  -17.1580 O   0  0  0  0  0  0  0  0  0  0  0  0
    0.8410    7.3560  -17.9770 C   0  0  0  0  0  0  0  0  0  0  0  0
   -9.1830    4.3760  -15.6930 C   0  0  0  0  0  0  0  0  0  0  0  0
   -7.9790    4.7100  -15.0580 C   0  0  0  0  0  0  0  0  0  0  0  0
   -7.9120    4.9460  -13.5770 C   0  0  0  0  0  0  0  0  0  0  0  0
   -7.2140    5.8530  -13.1290 O   0  0  0  0  0  0  0  0  0  0  0  0
   -8.6310    4.1000  -12.7870 N   0  0  0  0  0  0  0  0  0  0  0  0
   -8.6690    4.0920  -11.3620 C   0  0  0  0  0  0  0  0  0  0  0  0
   -8.8760    2.8960  -10.6750 C   0  0  0  0  0  0  0  0  0  0  0  0
   -8.9130    2.8820   -9.2820 C   0  0  0  0  0  0  0  0  0  0  0  0
   -9.1680    1.7440   -8.3370 C   0  0  0  0  0  0  0  0  0  0  0  0
   -8.9080    2.3520   -7.0310 N   0  0  0  0  0  0  0  0  0  0  0  0
   -8.8810    3.8150   -7.0990 C   0  0  0  0  0  0  0  0  0  0  0  0
   -8.7430    4.0650   -8.5730 C   0  0  0  0  0  0  0  0  0  0  0  0
   -8.5260    5.2550   -9.2560 C   0  0  0  0  0  0  0  0  0  0  0  0
   -8.4930    5.2710  -10.6410 C   0  0  0  0  0  0  0  0  0  0  0  0
  2  1  1  0
  3  2  2  0
  4  3  1  0
  5  4  2  0
  6  5  1  0
  7  4  1  0
  8  7  1  1
  9  8  1  0
 10  9  1  0
 11  8  1  0
 11 10  1  0
 12  7  1  0
 12  6  2  0
 13 12  1  0
 14 13  2  0
 15 14  1  0
 16 13  1  0
 17 16  2  0
 18 17  1  0
 18 15  2  0
 19 18  1  0
 20 19  1  0
 21  2  1  0
 22 21  2  0
 22  5  1  0
 23 22  1  0
 24 23  2  0
 25 23  1  0
 26 25  1  0
 27 26  2  0
 28 27  1  0
 29 28  1  0
 30 29  1  0
 31 30  1  0
 32 31  1  0
 32 28  2  0
 33 32  1  0
 34 26  1  0
 34 33  2  0
M  END
>  <smiles>  (292) 
COc1ccc(-c2nc3c(C(=O)Nc4ccc5c(c4)CNC5)cc(F)cc3n2C2CNC2)nn1

>  <inchikey>  (292) 
JSNYOAMUXGUIQH-UHFFFAOYSA-N

>  <alias>  (292) 
Z4978a

$$$$
Z4983a
     RDKit          3D

 23 26  0  0  0  0  0  0  0  0999 V2000
  -10.2180    3.8490  -17.9990 F   0  0  0  0  0  0  0  0  0  0  0  0
   -9.0430    4.2580  -17.4530 C   0  0  0  0  0  0  0  0  0  0  0  0
   -8.9720    4.4020  -16.0790 C   0  0  0  0  0  0  0  0  0  0  0  0
   -8.0080    4.5520  -18.3100 C   0  0  0  0  0  0  0  0  0  0  0  0
   -6.8500    5.0440  -17.7320 C   0  0  0  0  0  0  0  0  0  0  0  0
   -5.6630    5.4170  -18.2950 N   0  0  0  0  0  0  0  0  0  0  0  0
   -5.2940    5.4080  -19.7110 C   0  0  1  0  0  0  0  0  0  0  0  0
   -5.2010    6.7840  -20.3980 C   0  0  0  0  0  0  0  0  0  0  0  0
   -4.0140    6.2510  -21.1080 N   0  0  0  0  0  0  0  0  0  0  0  0
   -3.8000    5.2340  -20.0530 C   0  0  0  0  0  0  0  0  0  0  0  0
   -4.7730    5.8400  -17.3470 N   0  0  0  0  0  0  0  0  0  0  0  0
   -5.3920    5.7380  -16.1880 C   0  0  0  0  0  0  0  0  0  0  0  0
   -6.7110    5.2380  -16.3480 C   0  0  0  0  0  0  0  0  0  0  0  0
   -7.7970    4.9080  -15.5160 C   0  0  0  0  0  0  0  0  0  0  0  0
   -7.7070    5.1250  -14.0340 C   0  0  0  0  0  0  0  0  0  0  0  0
   -7.0260    6.0410  -13.5800 O   0  0  0  0  0  0  0  0  0  0  0  0
   -8.3790    4.2410  -13.2550 N   0  0  0  0  0  0  0  0  0  0  0  0
   -8.4480    4.2220  -11.8530 C   0  0  0  0  0  0  0  0  0  0  0  0
   -8.3910    3.0000  -11.3000 N   0  0  0  0  0  0  0  0  0  0  0  0
   -8.4260    2.9210   -9.9610 C   0  0  0  0  0  0  0  0  0  0  0  0
   -8.5120    4.0190   -9.1320 C   0  0  0  0  0  0  0  0  0  0  0  0
   -8.5640    5.2660   -9.7110 C   0  0  0  0  0  0  0  0  0  0  0  0
   -8.5370    5.3920  -11.0890 C   0  0  0  0  0  0  0  0  0  0  0  0
  2  1  1  0
  3  2  2  0
  4  2  1  0
  5  4  2  0
  6  5  1  0
  7  6  1  1
  8  7  1  0
  9  8  1  0
 10  7  1  0
 10  9  1  0
 11  6  1  0
 12 11  2  0
 13  5  1  0
 13 12  1  0
 14 13  2  0
 14  3  1  0
 15 14  1  0
 16 15  2  0
 17 15  1  0
 18 17  1  0
 19 18  2  0
 20 19  1  0
 21 20  2  0
 22 21  1  0
 23 18  1  0
 23 22  2  0
M  END
>  <smiles>  (293) 
O=C(Nc1ccccn1)c1cc(F)cc2c1cnn2C1CNC1

>  <inchikey>  (293) 
QXWNKVRRNUSKDY-UHFFFAOYSA-N

>  <alias>  (293) 
Z4983a

$$$$
Z4986a
     RDKit          3D

 24 27  0  0  0  0  0  0  0  0999 V2000
   -6.4360    5.4460  -12.9360 O   0  0  0  0  0  0  0  0  0  0  0  0
   -7.2620    4.7410  -13.5120 C   0  0  0  0  0  0  0  0  0  0  0  0
   -7.2890    4.6800  -15.0080 C   0  0  0  0  0  0  0  0  0  0  0  0
   -8.3910    4.2620  -15.7550 C   0  0  0  0  0  0  0  0  0  0  0  0
   -8.3310    4.2770  -17.1380 C   0  0  0  0  0  0  0  0  0  0  0  0
   -9.7230    3.8130  -18.0600 Cl  0  0  0  0  0  0  0  0  0  0  0  0
   -6.1320    5.1100  -15.6620 C   0  0  0  0  0  0  0  0  0  0  0  0
   -6.0650    5.1290  -17.0580 C   0  0  0  0  0  0  0  0  0  0  0  0
   -7.1800    4.6990  -17.8010 C   0  0  0  0  0  0  0  0  0  0  0  0
   -6.8810    4.8460  -19.1340 N   0  0  0  0  0  0  0  0  0  0  0  0
   -5.6190    5.3640  -19.2460 C   0  0  0  0  0  0  0  0  0  0  0  0
   -5.0730    5.5570  -18.0080 C   0  0  0  0  0  0  0  0  0  0  0  0
   -3.7290    6.1680  -17.6900 C   0  0  0  0  0  0  0  0  0  0  0  0
   -2.7980    5.1420  -17.1860 N   0  0  0  0  0  0  0  0  0  0  0  0
   -8.1930    4.0000  -12.8510 N   0  0  0  0  0  0  0  0  0  0  0  0
   -8.3830    3.9530  -11.4400 C   0  0  0  0  0  0  0  0  0  0  0  0
   -8.6620    2.7660  -10.7630 C   0  0  0  0  0  0  0  0  0  0  0  0
   -8.8110    2.7640   -9.3760 C   0  0  0  0  0  0  0  0  0  0  0  0
   -9.1680    1.6470   -8.4380 C   0  0  0  0  0  0  0  0  0  0  0  0
   -8.8810    2.2370   -7.1230 N   0  0  0  0  0  0  0  0  0  0  0  0
   -8.8410    3.6900   -7.1950 C   0  0  0  0  0  0  0  0  0  0  0  0
   -8.6680    3.9460   -8.6640 C   0  0  0  0  0  0  0  0  0  0  0  0
   -8.3950    5.1300   -9.3380 C   0  0  0  0  0  0  0  0  0  0  0  0
   -8.2540    5.1360  -10.7160 C   0  0  0  0  0  0  0  0  0  0  0  0
  2  1  2  0
  3  2  1  0
  4  3  2  0
  5  4  1  0
  6  5  1  0
  7  3  1  0
  8  7  2  0
  9  8  1  0
  9  5  2  0
 10  9  1  0
 11 10  1  0
 12 11  2  0
 12  8  1  0
 13 12  1  0
 14 13  1  0
 15  2  1  0
 16 15  1  0
 17 16  2  0
 18 17  1  0
 19 18  1  0
 20 19  1  0
 21 20  1  0
 22 21  1  0
 22 18  2  0
 23 22  1  0
 24 16  1  0
 24 23  2  0
M  END
>  <smiles>  (294) 
NCc1c[nH]c2c(Cl)cc(C(=O)Nc3ccc4c(c3)CNC4)cc12

>  <inchikey>  (294) 
KGRDMMUXHWEZAZ-UHFFFAOYSA-N

>  <alias>  (294) 
Z4986a

$$$$
Z4991a
     RDKit          3D

 24 27  0  0  0  0  0  0  0  0999 V2000
   -6.7950    5.6940  -12.8470 O   0  0  0  0  0  0  0  0  0  0  0  0
   -7.5090    4.8610  -13.3990 C   0  0  0  0  0  0  0  0  0  0  0  0
   -7.4680    4.6970  -14.8850 C   0  0  0  0  0  0  0  0  0  0  0  0
   -6.2290    5.0020  -15.4480 C   0  0  0  0  0  0  0  0  0  0  0  0
   -8.5540    4.3810  -15.7080 C   0  0  0  0  0  0  0  0  0  0  0  0
   -8.4340    4.3940  -17.0910 C   0  0  0  0  0  0  0  0  0  0  0  0
   -7.1980    4.7250  -17.6380 C   0  0  0  0  0  0  0  0  0  0  0  0
   -6.1000    5.0240  -16.8360 C   0  0  0  0  0  0  0  0  0  0  0  0
   -5.0130    5.3680  -17.6340 N   0  0  0  0  0  0  0  0  0  0  0  0
   -6.7650    4.9010  -18.9470 N   0  0  0  0  0  0  0  0  0  0  0  0
   -5.4620    5.2860  -18.8740 C   0  0  0  0  0  0  0  0  0  0  0  0
   -4.7410    5.5770  -19.9680 N   0  0  0  0  0  0  0  0  0  0  0  0
   -3.4120    5.0320  -20.2730 C   0  0  0  0  0  0  0  0  0  0  0  0
   -2.3350    5.5150  -19.3460 C   0  0  0  0  0  0  0  0  0  0  0  0
   -8.3410    4.0320  -12.7140 N   0  0  0  0  0  0  0  0  0  0  0  0
   -8.5120    4.0170  -11.3010 C   0  0  0  0  0  0  0  0  0  0  0  0
   -8.7140    2.8140  -10.6320 C   0  0  0  0  0  0  0  0  0  0  0  0
   -8.8460    2.7940   -9.2470 C   0  0  0  0  0  0  0  0  0  0  0  0
   -9.1090    1.6360   -8.3290 C   0  0  0  0  0  0  0  0  0  0  0  0
   -8.8720    2.2470   -7.0150 N   0  0  0  0  0  0  0  0  0  0  0  0
   -8.9360    3.7080   -7.0580 C   0  0  0  0  0  0  0  0  0  0  0  0
   -8.7520    3.9760   -8.5240 C   0  0  0  0  0  0  0  0  0  0  0  0
   -8.5340    5.1740   -9.1890 C   0  0  0  0  0  0  0  0  0  0  0  0
   -8.4260    5.2000  -10.5700 C   0  0  0  0  0  0  0  0  0  0  0  0
  2  1  2  0
  3  2  1  0
  4  3  2  0
  5  3  1  0
  6  5  2  0
  7  6  1  0
  8  7  2  0
  8  4  1  0
  9  8  1  0
 10  7  1  0
 11 10  1  0
 11  9  2  0
 12 11  1  0
 13 12  1  0
 14 13  1  0
 15  2  1  0
 16 15  1  0
 17 16  2  0
 18 17  1  0
 19 18  1  0
 20 19  1  0
 21 20  1  0
 22 21  1  0
 22 18  2  0
 23 22  1  0
 24 16  1  0
 24 23  2  0
M  END
>  <smiles>  (295) 
CCNc1nc2cc(C(=O)Nc3ccc4c(c3)CNC4)ccc2[nH]1

>  <inchikey>  (295) 
KLHNCGCVQIERJD-UHFFFAOYSA-N

>  <alias>  (295) 
Z4991a

$$$$
Z4996a
     RDKit          3D

 25 28  0  0  0  0  0  0  0  0999 V2000
   -6.7670    5.7000  -12.8250 O   0  0  0  0  0  0  0  0  0  0  0  0
   -7.5070    4.9120  -13.4140 C   0  0  0  0  0  0  0  0  0  0  0  0
   -7.4040    4.7400  -14.8990 C   0  0  0  0  0  0  0  0  0  0  0  0
   -6.1530    5.0750  -15.4200 C   0  0  0  0  0  0  0  0  0  0  0  0
   -8.4490    4.3800  -15.7610 C   0  0  0  0  0  0  0  0  0  0  0  0
   -8.2750    4.3810  -17.1390 C   0  0  0  0  0  0  0  0  0  0  0  0
   -7.0290    4.7410  -17.6410 C   0  0  0  0  0  0  0  0  0  0  0  0
   -5.9700    5.0850  -16.8020 C   0  0  0  0  0  0  0  0  0  0  0  0
   -4.8590    5.4480  -17.5640 N   0  0  0  0  0  0  0  0  0  0  0  0
   -6.5470    4.8990  -18.9360 N   0  0  0  0  0  0  0  0  0  0  0  0
   -5.2660    5.3380  -18.8160 C   0  0  0  0  0  0  0  0  0  0  0  0
   -4.5540    5.7700  -19.8930 N   0  0  0  0  0  0  0  0  0  0  0  0
   -3.2510    5.2950  -20.3780 C   0  0  2  0  0  0  0  0  0  0  0  0
   -2.2690    5.1050  -19.2480 C   0  0  0  0  0  0  0  0  0  0  0  0
   -2.7210    6.2600  -21.4160 C   0  0  0  0  0  0  0  0  0  0  0  0
   -8.3900    4.1130  -12.7620 N   0  0  0  0  0  0  0  0  0  0  0  0
   -8.5450    4.0490  -11.3490 C   0  0  0  0  0  0  0  0  0  0  0  0
   -8.7250    2.8370  -10.6860 C   0  0  0  0  0  0  0  0  0  0  0  0
   -8.8210    2.8030   -9.2930 C   0  0  0  0  0  0  0  0  0  0  0  0
   -9.1060    1.6490   -8.3770 C   0  0  0  0  0  0  0  0  0  0  0  0
   -8.9210    2.2280   -7.0340 N   0  0  0  0  0  0  0  0  0  0  0  0
   -8.8380    3.6960   -7.0940 C   0  0  0  0  0  0  0  0  0  0  0  0
   -8.7160    3.9800   -8.5630 C   0  0  0  0  0  0  0  0  0  0  0  0
   -8.5310    5.1890   -9.2240 C   0  0  0  0  0  0  0  0  0  0  0  0
   -8.4580    5.2270  -10.6080 C   0  0  0  0  0  0  0  0  0  0  0  0
  2  1  2  0
  3  2  1  0
  4  3  2  0
  5  3  1  0
  6  5  2  0
  7  6  1  0
  8  7  2  0
  8  4  1  0
  9  8  1  0
 10  7  1  0
 11 10  1  0
 11  9  2  0
 12 11  1  0
 13 12  1  0
 13 14  1  1
 15 13  1  0
 16  2  1  0
 17 16  1  0
 18 17  2  0
 19 18  1  0
 20 19  1  0
 21 20  1  0
 22 21  1  0
 23 22  1  0
 23 19  2  0
 24 23  1  0
 25 17  1  0
 25 24  2  0
M  END
>  <smiles>  (296) 
CC(C)Nc1nc2cc(C(=O)Nc3ccc4c(c3)CNC4)ccc2[nH]1

>  <inchikey>  (296) 
MQQSTOGPQQZHAO-UHFFFAOYSA-N

>  <alias>  (296) 
Z4996a

$$$$
Z5002a
     RDKit          3D

 26 30  0  0  0  0  0  0  0  0999 V2000
   -9.6620    3.8360  -17.6360 F   0  0  0  0  0  0  0  0  0  0  0  0
   -8.5840    4.2520  -16.9280 C   0  0  0  0  0  0  0  0  0  0  0  0
   -8.6350    4.2800  -15.5530 C   0  0  0  0  0  0  0  0  0  0  0  0
   -7.4600    4.6270  -17.6350 C   0  0  0  0  0  0  0  0  0  0  0  0
   -6.3190    5.0560  -16.9330 C   0  0  0  0  0  0  0  0  0  0  0  0
   -5.3270    5.4000  -17.9200 C   0  0  0  0  0  0  0  0  0  0  0  0
   -3.9680    5.9780  -17.6380 C   0  0  1  0  0  0  0  0  0  0  0  0
   -2.8060    4.9700  -17.8120 C   0  0  0  0  0  0  0  0  0  0  0  0
   -2.3400    5.7130  -19.0050 N   0  0  0  0  0  0  0  0  0  0  0  0
   -3.3660    6.7670  -18.8280 C   0  0  0  0  0  0  0  0  0  0  0  0
   -5.8950    5.1540  -19.1370 C   0  0  0  0  0  0  0  0  0  0  0  0
   -7.1760    4.6900  -18.9780 N   0  0  0  0  0  0  0  0  0  0  0  0
   -6.3500    5.0750  -15.5360 C   0  0  0  0  0  0  0  0  0  0  0  0
   -7.5030    4.6920  -14.8450 C   0  0  0  0  0  0  0  0  0  0  0  0
   -7.4230    4.7590  -13.3500 C   0  0  0  0  0  0  0  0  0  0  0  0
   -6.5670    5.4470  -12.7970 O   0  0  0  0  0  0  0  0  0  0  0  0
   -8.3300    4.0220  -12.6610 N   0  0  0  0  0  0  0  0  0  0  0  0
   -8.4400    3.9650  -11.2410 C   0  0  0  0  0  0  0  0  0  0  0  0
   -8.6520    2.7570  -10.5760 C   0  0  0  0  0  0  0  0  0  0  0  0
   -8.7550    2.7290   -9.1850 C   0  0  0  0  0  0  0  0  0  0  0  0
   -9.0460    1.5800   -8.2640 C   0  0  0  0  0  0  0  0  0  0  0  0
   -8.7640    2.1590   -6.9450 N   0  0  0  0  0  0  0  0  0  0  0  0
   -8.7800    3.6270   -6.9910 C   0  0  0  0  0  0  0  0  0  0  0  0
   -8.6270    3.9050   -8.4580 C   0  0  0  0  0  0  0  0  0  0  0  0
   -8.4030    5.1080   -9.1190 C   0  0  0  0  0  0  0  0  0  0  0  0
   -8.3110    5.1400  -10.5030 C   0  0  0  0  0  0  0  0  0  0  0  0
  2  1  1  0
  3  2  2  0
  4  2  1  0
  5  4  2  0
  6  5  1  0
  7  6  1  6
  8  7  1  0
  9  8  1  0
 10  9  1  0
 10  7  1  0
 11  6  2  0
 12 11  1  0
 12  4  1  0
 13  5  1  0
 14 13  2  0
 14  3  1  0
 15 14  1  0
 16 15  2  0
 17 15  1  0
 18 17  1  0
 19 18  2  0
 20 19  1  0
 21 20  1  0
 22 21  1  0
 23 22  1  0
 24 23  1  0
 24 20  2  0
 25 24  1  0
 26 18  1  0
 26 25  2  0
M  END
>  <smiles>  (297) 
O=C(Nc1ccc2c(c1)CNC2)c1cc(F)c2[nH]cc(C3CNC3)c2c1

>  <inchikey>  (297) 
DYIXYTWDWXGRBG-UHFFFAOYSA-N

>  <alias>  (297) 
Z5002a

$$$$
Z5003a
     RDKit          3D

 26 30  0  0  0  0  0  0  0  0999 V2000
   -9.7500    3.6860  -18.0000 Cl  0  0  0  0  0  0  0  0  0  0  0  0
   -8.4030    4.2120  -17.0420 C   0  0  0  0  0  0  0  0  0  0  0  0
   -8.4890    4.1990  -15.6570 C   0  0  0  0  0  0  0  0  0  0  0  0
   -7.2350    4.6340  -17.6790 C   0  0  0  0  0  0  0  0  0  0  0  0
   -6.1260    5.0360  -16.9110 C   0  0  0  0  0  0  0  0  0  0  0  0
   -5.0870    5.3980  -17.8380 C   0  0  0  0  0  0  0  0  0  0  0  0
   -3.7270    5.9180  -17.4660 C   0  0  1  0  0  0  0  0  0  0  0  0
   -2.5790    4.8860  -17.5780 C   0  0  0  0  0  0  0  0  0  0  0  0
   -1.9630    5.7150  -18.6400 N   0  0  0  0  0  0  0  0  0  0  0  0
   -3.0140    6.7590  -18.5540 C   0  0  0  0  0  0  0  0  0  0  0  0
   -5.6040    5.2110  -19.0880 C   0  0  0  0  0  0  0  0  0  0  0  0
   -6.8920    4.7510  -19.0050 N   0  0  0  0  0  0  0  0  0  0  0  0
   -6.2150    5.0110  -15.5160 C   0  0  0  0  0  0  0  0  0  0  0  0
   -7.3970    4.6080  -14.8880 C   0  0  0  0  0  0  0  0  0  0  0  0
   -7.3800    4.7010  -13.3900 C   0  0  0  0  0  0  0  0  0  0  0  0
   -6.5510    5.4030  -12.8120 O   0  0  0  0  0  0  0  0  0  0  0  0
   -8.2990    3.9640  -12.7260 N   0  0  0  0  0  0  0  0  0  0  0  0
   -8.4540    3.9240  -11.3030 C   0  0  0  0  0  0  0  0  0  0  0  0
   -8.6580    2.7110  -10.6450 C   0  0  0  0  0  0  0  0  0  0  0  0
   -8.7350    2.6680   -9.2500 C   0  0  0  0  0  0  0  0  0  0  0  0
   -9.0260    1.5120   -8.3390 C   0  0  0  0  0  0  0  0  0  0  0  0
   -8.7010    2.0680   -7.0090 N   0  0  0  0  0  0  0  0  0  0  0  0
   -8.7010    3.5430   -7.0430 C   0  0  0  0  0  0  0  0  0  0  0  0
   -8.5930    3.8380   -8.5120 C   0  0  0  0  0  0  0  0  0  0  0  0
   -8.4090    5.0530   -9.1680 C   0  0  0  0  0  0  0  0  0  0  0  0
   -8.3410    5.0970  -10.5550 C   0  0  0  0  0  0  0  0  0  0  0  0
  2  1  1  0
  3  2  2  0
  4  2  1  0
  5  4  2  0
  6  5  1  0
  7  6  1  6
  8  7  1  0
  9  8  1  0
 10  9  1  0
 10  7  1  0
 11  6  2  0
 12 11  1  0
 12  4  1  0
 13  5  1  0
 14 13  2  0
 14  3  1  0
 15 14  1  0
 16 15  2  0
 17 15  1  0
 18 17  1  0
 19 18  2  0
 20 19  1  0
 21 20  1  0
 22 21  1  0
 23 22  1  0
 24 23  1  0
 24 20  2  0
 25 24  1  0
 26 18  1  0
 26 25  2  0
M  END
>  <smiles>  (298) 
O=C(Nc1ccc2c(c1)CNC2)c1cc(Cl)c2[nH]cc(C3CNC3)c2c1

>  <inchikey>  (298) 
QQZRJKZBACRNLU-UHFFFAOYSA-N

>  <alias>  (298) 
Z5003a

$$$$
Z5010a
     RDKit          3D

 25 28  0  0  0  0  0  0  0  0999 V2000
  -10.4390    3.9270  -18.2580 Cl  0  0  0  0  0  0  0  0  0  0  0  0
   -8.9160    4.3220  -17.5090 C   0  0  0  0  0  0  0  0  0  0  0  0
   -8.8390    4.3840  -16.1240 C   0  0  0  0  0  0  0  0  0  0  0  0
   -7.8330    4.5960  -18.3210 C   0  0  0  0  0  0  0  0  0  0  0  0
   -6.6450    4.9420  -17.7000 C   0  0  0  0  0  0  0  0  0  0  0  0
   -5.4140    5.2160  -18.2240 N   0  0  0  0  0  0  0  0  0  0  0  0
   -4.9960    5.1710  -19.6280 C   0  0  1  0  0  0  0  0  0  0  0  0
   -4.9200    6.4910  -20.4230 C   0  0  0  0  0  0  0  0  0  0  0  0
   -3.7100    5.9340  -21.0730 N   0  0  0  0  0  0  0  0  0  0  0  0
   -3.4920    5.0080  -19.9380 C   0  0  0  0  0  0  0  0  0  0  0  0
   -4.5030    5.4910  -17.2400 N   0  0  0  0  0  0  0  0  0  0  0  0
   -5.1530    5.3860  -16.0980 C   0  0  0  0  0  0  0  0  0  0  0  0
   -6.5140    5.0380  -16.3060 C   0  0  0  0  0  0  0  0  0  0  0  0
   -7.6430    4.7700  -15.5090 C   0  0  0  0  0  0  0  0  0  0  0  0
   -7.6000    5.1080  -14.0450 C   0  0  0  0  0  0  0  0  0  0  0  0
   -6.9840    6.1050  -13.6740 O   0  0  0  0  0  0  0  0  0  0  0  0
   -8.2270    4.2610  -13.1800 N   0  0  0  0  0  0  0  0  0  0  0  0
   -8.3250    4.4100  -11.7800 C   0  0  0  0  0  0  0  0  0  0  0  0
   -8.1180    5.6680  -11.1920 C   0  0  0  0  0  0  0  0  0  0  0  0
   -8.1980    5.7680   -9.8160 C   0  0  0  0  0  0  0  0  0  0  0  0
   -8.6080    3.3070  -11.0620 N   0  0  0  0  0  0  0  0  0  0  0  0
   -8.6870    3.4140   -9.7200 C   0  0  0  0  0  0  0  0  0  0  0  0
   -9.0050    2.1680   -8.9460 C   0  0  0  0  0  0  0  0  0  0  0  0
   -8.4810    4.6550   -9.0320 C   0  0  0  0  0  0  0  0  0  0  0  0
   -8.5430    4.7920   -7.5320 C   0  0  0  0  0  0  0  0  0  0  0  0
  2  1  1  0
  3  2  2  0
  4  2  1  0
  5  4  2  0
  6  5  1  0
  7  6  1  1
  8  7  1  0
  9  8  1  0
 10  7  1  0
 10  9  1  0
 11  6  1  0
 12 11  2  0
 13  5  1  0
 13 12  1  0
 14 13  2  0
 14  3  1  0
 15 14  1  0
 16 15  2  0
 17 15  1  0
 18 17  1  0
 19 18  2  0
 20 19  1  0
 21 18  1  0
 22 21  2  0
 23 22  1  0
 24 22  1  0
 24 20  2  0
 25 24  1  0
M  END
>  <smiles>  (299) 
Cc1ccc(NC(=O)c2cc(Cl)cc3c2cnn3C2CNC2)nc1C

>  <inchikey>  (299) 
BAJRXOCVICRSDQ-UHFFFAOYSA-N

>  <alias>  (299) 
Z5010a

$$$$
Z5011a
     RDKit          3D

 24 27  0  0  0  0  0  0  0  0999 V2000
   -6.3870    5.3510  -12.8740 O   0  0  0  0  0  0  0  0  0  0  0  0
   -7.3040    4.7430  -13.4230 C   0  0  0  0  0  0  0  0  0  0  0  0
   -7.4090    4.7110  -14.9190 C   0  0  0  0  0  0  0  0  0  0  0  0
   -8.5310    4.2780  -15.6290 C   0  0  0  0  0  0  0  0  0  0  0  0
   -8.4910    4.2850  -17.0050 C   0  0  0  0  0  0  0  0  0  0  0  0
   -9.5830    3.9160  -17.7170 F   0  0  0  0  0  0  0  0  0  0  0  0
   -6.2780    5.1550  -15.6090 C   0  0  0  0  0  0  0  0  0  0  0  0
   -6.2500    5.1500  -17.0060 C   0  0  0  0  0  0  0  0  0  0  0  0
   -7.3790    4.6940  -17.7100 C   0  0  0  0  0  0  0  0  0  0  0  0
   -7.0920    4.7560  -19.0490 N   0  0  0  0  0  0  0  0  0  0  0  0
   -5.8230    5.2430  -19.2070 C   0  0  0  0  0  0  0  0  0  0  0  0
   -5.2630    5.5130  -17.9900 C   0  0  0  0  0  0  0  0  0  0  0  0
   -3.9200    6.1460  -17.7250 C   0  0  0  0  0  0  0  0  0  0  0  0
   -2.9490    5.1010  -17.3800 N   0  0  0  0  0  0  0  0  0  0  0  0
   -8.2720    4.0830  -12.7340 N   0  0  0  0  0  0  0  0  0  0  0  0
   -8.4190    4.0410  -11.3160 C   0  0  0  0  0  0  0  0  0  0  0  0
   -8.6990    2.8430  -10.6620 C   0  0  0  0  0  0  0  0  0  0  0  0
   -8.8490    2.8170   -9.2740 C   0  0  0  0  0  0  0  0  0  0  0  0
   -9.1830    1.6740   -8.3600 C   0  0  0  0  0  0  0  0  0  0  0  0
   -8.8380    2.2410   -7.0640 N   0  0  0  0  0  0  0  0  0  0  0  0
   -8.8510    3.7020   -7.0750 C   0  0  0  0  0  0  0  0  0  0  0  0
   -8.7010    3.9880   -8.5410 C   0  0  0  0  0  0  0  0  0  0  0  0
   -8.4290    5.1840   -9.1940 C   0  0  0  0  0  0  0  0  0  0  0  0
   -8.2900    5.2130  -10.5730 C   0  0  0  0  0  0  0  0  0  0  0  0
  2  1  2  0
  3  2  1  0
  4  3  2  0
  5  4  1  0
  6  5  1  0
  7  3  1  0
  8  7  2  0
  9  8  1  0
  9  5  2  0
 10  9  1  0
 11 10  1  0
 12 11  2  0
 12  8  1  0
 13 12  1  0
 14 13  1  0
 15  2  1  0
 16 15  1  0
 17 16  2  0
 18 17  1  0
 19 18  1  0
 20 19  1  0
 21 20  1  0
 22 21  1  0
 22 18  2  0
 23 22  1  0
 24 16  1  0
 24 23  2  0
M  END
>  <smiles>  (300) 
NCc1c[nH]c2c(F)cc(C(=O)Nc3ccc4c(c3)CNC4)cc12

>  <inchikey>  (300) 
CZZNOLDQCUUTIW-UHFFFAOYSA-N

>  <alias>  (300) 
Z5011a

$$$$
Z5017a
     RDKit          3D

 23 26  0  0  0  0  0  0  0  0999 V2000
  -10.2890    3.8240  -18.0540 F   0  0  0  0  0  0  0  0  0  0  0  0
   -9.1220    4.2910  -17.5350 C   0  0  0  0  0  0  0  0  0  0  0  0
   -9.0320    4.4410  -16.1650 C   0  0  0  0  0  0  0  0  0  0  0  0
   -8.1180    4.6320  -18.4120 C   0  0  0  0  0  0  0  0  0  0  0  0
   -6.9680    5.1680  -17.8540 C   0  0  0  0  0  0  0  0  0  0  0  0
   -5.7920    5.5560  -18.4320 N   0  0  0  0  0  0  0  0  0  0  0  0
   -5.4100    5.5410  -19.8450 C   0  0  2  0  0  0  0  0  0  0  0  0
   -3.9250    5.2300  -20.1350 C   0  0  0  0  0  0  0  0  0  0  0  0
   -3.9200    6.3680  -21.0840 N   0  0  0  0  0  0  0  0  0  0  0  0
   -5.1610    6.9190  -20.4910 C   0  0  0  0  0  0  0  0  0  0  0  0
   -4.9010    6.0050  -17.4970 N   0  0  0  0  0  0  0  0  0  0  0  0
   -5.5070    5.9010  -16.3310 C   0  0  0  0  0  0  0  0  0  0  0  0
   -6.8180    5.3740  -16.4740 C   0  0  0  0  0  0  0  0  0  0  0  0
   -7.8720    5.0010  -15.6240 C   0  0  0  0  0  0  0  0  0  0  0  0
   -7.7690    5.2090  -14.1420 C   0  0  0  0  0  0  0  0  0  0  0  0
   -7.0980    6.1300  -13.6840 O   0  0  0  0  0  0  0  0  0  0  0  0
   -8.4360    4.3200  -13.3680 N   0  0  0  0  0  0  0  0  0  0  0  0
   -8.4770    4.2990  -11.9820 C   0  0  0  0  0  0  0  0  0  0  0  0
   -8.5230    3.0860  -11.4050 N   0  0  0  0  0  0  0  0  0  0  0  0
   -8.5110    3.0850  -10.0640 C   0  0  0  0  0  0  0  0  0  0  0  0
   -8.4590    4.2340   -9.3050 C   0  0  0  0  0  0  0  0  0  0  0  0
   -8.4160    5.4180  -10.0050 C   0  0  0  0  0  0  0  0  0  0  0  0
   -8.4280    5.4840  -11.3430 N   0  0  0  0  0  0  0  0  0  0  0  0
  2  1  1  0
  3  2  2  0
  4  2  1  0
  5  4  2  0
  6  5  1  0
  7  6  1  1
  8  7  1  0
  9  8  1  0
 10  9  1  0
 10  7  1  0
 11  6  1  0
 12 11  2  0
 13  5  1  0
 13 12  1  0
 14 13  2  0
 14  3  1  0
 15 14  1  0
 16 15  2  0
 17 15  1  0
 18 17  1  0
 19 18  2  0
 20 19  1  0
 21 20  2  0
 22 21  1  0
 23 18  1  0
 23 22  2  0
M  END
>  <smiles>  (301) 
O=C(Nc1ncccn1)c1cc(F)cc2c1cnn2C1CNC1

>  <inchikey>  (301) 
MVDDYECVTQJJIB-UHFFFAOYSA-N

>  <alias>  (301) 
Z5017a

$$$$
Z5020a
     RDKit          3D

 27 31  0  0  0  0  0  0  0  0999 V2000
  -10.7190    4.0550  -18.1550 Cl  0  0  0  0  0  0  0  0  0  0  0  0
   -9.2150    4.4790  -17.3680 C   0  0  0  0  0  0  0  0  0  0  0  0
   -9.1670    4.5510  -15.9790 C   0  0  0  0  0  0  0  0  0  0  0  0
   -8.1180    4.7660  -18.1540 C   0  0  0  0  0  0  0  0  0  0  0  0
   -6.9460    5.1330  -17.5120 C   0  0  0  0  0  0  0  0  0  0  0  0
   -5.7020    5.3890  -18.0120 N   0  0  0  0  0  0  0  0  0  0  0  0
   -5.2580    5.3630  -19.4100 C   0  0  1  0  0  0  0  0  0  0  0  0
   -4.9930    6.7150  -20.1010 C   0  0  0  0  0  0  0  0  0  0  0  0
   -3.7500    6.1260  -20.6610 N   0  0  0  0  0  0  0  0  0  0  0  0
   -3.7770    5.0180  -19.6820 C   0  0  0  0  0  0  0  0  0  0  0  0
   -4.8120    5.6730  -17.0130 N   0  0  0  0  0  0  0  0  0  0  0  0
   -5.4890    5.5940  -15.8830 C   0  0  0  0  0  0  0  0  0  0  0  0
   -6.8450    5.2440  -16.1160 C   0  0  0  0  0  0  0  0  0  0  0  0
   -7.9820    4.9490  -15.3410 C   0  0  0  0  0  0  0  0  0  0  0  0
   -7.9060    5.1190  -13.8510 C   0  0  0  0  0  0  0  0  0  0  0  0
   -7.1280    5.9320  -13.3560 O   0  0  0  0  0  0  0  0  0  0  0  0
   -8.6820    4.2920  -13.1110 N   0  0  0  0  0  0  0  0  0  0  0  0
   -8.7120    4.2030  -11.6890 C   0  0  0  0  0  0  0  0  0  0  0  0
   -8.8580    2.9520  -11.0970 C   0  0  0  0  0  0  0  0  0  0  0  0
   -8.8850    2.8310   -9.7170 C   0  0  0  0  0  0  0  0  0  0  0  0
   -8.7720    3.9460   -8.8950 C   0  0  0  0  0  0  0  0  0  0  0  0
   -8.6060    5.1890   -9.4920 C   0  0  0  0  0  0  0  0  0  0  0  0
   -8.5810    5.3230  -10.8730 C   0  0  0  0  0  0  0  0  0  0  0  0
   -8.8700    3.8120   -7.3860 C   0  0  2  0  0  0  0  0  0  0  0  0
   -7.6510    4.2780   -6.5520 C   0  0  0  0  0  0  0  0  0  0  0  0
   -7.7690    3.0340   -5.7500 N   0  0  0  0  0  0  0  0  0  0  0  0
   -8.6190    2.4050   -6.7910 C   0  0  0  0  0  0  0  0  0  0  0  0
  2  1  1  0
  3  2  2  0
  4  2  1  0
  5  4  2  0
  6  5  1  0
  7  6  1  1
  8  7  1  0
  9  8  1  0
 10  7  1  0
 10  9  1  0
 11  6  1  0
 12 11  2  0
 13  5  1  0
 13 12  1  0
 14 13  2  0
 14  3  1  0
 15 14  1  0
 16 15  2  0
 17 15  1  0
 18 17  1  0
 19 18  2  0
 20 19  1  0
 21 20  2  0
 22 21  1  0
 23 18  1  0
 23 22  2  0
 24 21  1  6
 25 24  1  0
 26 25  1  0
 27 26  1  0
 27 24  1  0
M  END
>  <smiles>  (302) 
O=C(Nc1ccc(C2CNC2)cc1)c1cc(Cl)cc2c1cnn2C1CNC1

>  <inchikey>  (302) 
PKMWDWSRVUHNHJ-UHFFFAOYSA-N

>  <alias>  (302) 
Z5020a

$$$$
Z5027a
     RDKit          3D

 23 26  0  0  0  0  0  0  0  0999 V2000
  -10.4540    3.8260  -18.3380 Cl  0  0  0  0  0  0  0  0  0  0  0  0
   -8.9180    4.1910  -17.6020 C   0  0  0  0  0  0  0  0  0  0  0  0
   -8.8290    4.2590  -16.2200 C   0  0  0  0  0  0  0  0  0  0  0  0
   -7.8510    4.4950  -18.4240 C   0  0  0  0  0  0  0  0  0  0  0  0
   -6.6770    4.9100  -17.8150 C   0  0  0  0  0  0  0  0  0  0  0  0
   -5.4670    5.2420  -18.3520 N   0  0  0  0  0  0  0  0  0  0  0  0
   -5.0610    5.2210  -19.7590 C   0  0  2  0  0  0  0  0  0  0  0  0
   -3.5910    4.8490  -20.0490 C   0  0  0  0  0  0  0  0  0  0  0  0
   -3.5540    5.9740  -21.0080 N   0  0  0  0  0  0  0  0  0  0  0  0
   -4.7720    6.5840  -20.4180 C   0  0  0  0  0  0  0  0  0  0  0  0
   -4.5680    5.5840  -17.3790 N   0  0  0  0  0  0  0  0  0  0  0  0
   -5.2040    5.4610  -16.2310 C   0  0  0  0  0  0  0  0  0  0  0  0
   -6.5430    5.0350  -16.4250 C   0  0  0  0  0  0  0  0  0  0  0  0
   -7.6470    4.7080  -15.6190 C   0  0  0  0  0  0  0  0  0  0  0  0
   -7.5540    4.9370  -14.1410 C   0  0  0  0  0  0  0  0  0  0  0  0
   -6.7730    5.7740  -13.6960 O   0  0  0  0  0  0  0  0  0  0  0  0
   -8.3320    4.1580  -13.3490 N   0  0  0  0  0  0  0  0  0  0  0  0
   -8.3930    4.1780  -11.9450 C   0  0  0  0  0  0  0  0  0  0  0  0
   -8.3620    2.9690  -11.3680 N   0  0  0  0  0  0  0  0  0  0  0  0
   -8.3400    2.9210  -10.0230 C   0  0  0  0  0  0  0  0  0  0  0  0
   -8.3510    4.0380   -9.2170 C   0  0  0  0  0  0  0  0  0  0  0  0
   -8.3910    5.2740   -9.8220 C   0  0  0  0  0  0  0  0  0  0  0  0
   -8.4160    5.3700  -11.2050 C   0  0  0  0  0  0  0  0  0  0  0  0
  2  1  1  0
  3  2  2  0
  4  2  1  0
  5  4  2  0
  6  5  1  0
  7  6  1  1
  8  7  1  0
  9  8  1  0
 10  7  1  0
 10  9  1  0
 11  6  1  0
 12 11  2  0
 13  5  1  0
 13 12  1  0
 14 13  2  0
 14  3  1  0
 15 14  1  0
 16 15  2  0
 17 15  1  0
 18 17  1  0
 19 18  2  0
 20 19  1  0
 21 20  2  0
 22 21  1  0
 23 18  1  0
 23 22  2  0
M  END
>  <smiles>  (303) 
O=C(Nc1ccccn1)c1cc(Cl)cc2c1cnn2C1CNC1

>  <inchikey>  (303) 
JWZXVZVDFXZYLJ-UHFFFAOYSA-N

>  <alias>  (303) 
Z5027a

$$$$
Z5029a
     RDKit          3D

 23 26  0  0  0  0  0  0  0  0999 V2000
  -10.1690    3.6570  -18.0620 F   0  0  0  0  0  0  0  0  0  0  0  0
   -8.9910    4.0860  -17.5280 C   0  0  0  0  0  0  0  0  0  0  0  0
   -8.9150    4.2400  -16.1560 C   0  0  0  0  0  0  0  0  0  0  0  0
   -7.9650    4.3960  -18.3960 C   0  0  0  0  0  0  0  0  0  0  0  0
   -6.8090    4.9090  -17.8240 C   0  0  0  0  0  0  0  0  0  0  0  0
   -5.6130    5.2550  -18.3870 N   0  0  0  0  0  0  0  0  0  0  0  0
   -5.1820    5.1550  -19.7820 C   0  0  1  0  0  0  0  0  0  0  0  0
   -4.7620    6.4870  -20.4370 C   0  0  0  0  0  0  0  0  0  0  0  0
   -3.5360    5.8080  -20.9310 N   0  0  0  0  0  0  0  0  0  0  0  0
   -3.7220    4.6850  -19.9830 C   0  0  0  0  0  0  0  0  0  0  0  0
   -4.7270    5.6970  -17.4430 N   0  0  0  0  0  0  0  0  0  0  0  0
   -5.3540    5.6200  -16.2860 C   0  0  0  0  0  0  0  0  0  0  0  0
   -6.6740    5.1240  -16.4440 C   0  0  0  0  0  0  0  0  0  0  0  0
   -7.7490    4.7800  -15.6050 C   0  0  0  0  0  0  0  0  0  0  0  0
   -7.6490    5.0400  -14.1330 C   0  0  0  0  0  0  0  0  0  0  0  0
   -6.9670    5.9720  -13.7120 O   0  0  0  0  0  0  0  0  0  0  0  0
   -8.3150    4.1770  -13.3240 N   0  0  0  0  0  0  0  0  0  0  0  0
   -8.3910    4.2050  -11.9210 C   0  0  0  0  0  0  0  0  0  0  0  0
   -8.6310    3.0220  -11.3450 N   0  0  0  0  0  0  0  0  0  0  0  0
   -8.6540    3.0260  -10.0070 C   0  0  0  0  0  0  0  0  0  0  0  0
   -8.4800    4.0640   -9.1880 N   0  0  0  0  0  0  0  0  0  0  0  0
   -8.2580    5.2270   -9.7990 C   0  0  0  0  0  0  0  0  0  0  0  0
   -8.2030    5.3670  -11.1700 C   0  0  0  0  0  0  0  0  0  0  0  0
  2  1  1  0
  3  2  2  0
  4  2  1  0
  5  4  2  0
  6  5  1  0
  7  6  1  1
  8  7  1  0
  9  8  1  0
 10  7  1  0
 10  9  1  0
 11  6  1  0
 12 11  2  0
 13  5  1  0
 13 12  1  0
 14 13  2  0
 14  3  1  0
 15 14  1  0
 16 15  2  0
 17 15  1  0
 18 17  1  0
 19 18  2  0
 20 19  1  0
 21 20  2  0
 22 21  1  0
 23 18  1  0
 23 22  2  0
M  END
>  <smiles>  (304) 
O=C(Nc1ccncn1)c1cc(F)cc2c1cnn2C1CNC1

>  <inchikey>  (304) 
XSZFBZVFUYLPFX-UHFFFAOYSA-N

>  <alias>  (304) 
Z5029a

$$$$
Z5042a
     RDKit          3D

 28 32  0  0  0  0  0  0  0  0999 V2000
   -9.8690    3.5420  -17.8800 Cl  0  0  0  0  0  0  0  0  0  0  0  0
   -8.4880    4.0570  -16.9670 C   0  0  0  0  0  0  0  0  0  0  0  0
   -8.5850    4.1200  -15.5870 C   0  0  0  0  0  0  0  0  0  0  0  0
   -7.3220    4.4280  -17.6440 C   0  0  0  0  0  0  0  0  0  0  0  0
   -6.2620    4.8930  -16.8460 C   0  0  0  0  0  0  0  0  0  0  0  0
   -5.2490    5.2160  -17.7000 N   0  0  0  0  0  0  0  0  0  0  0  0
   -3.9640    5.8390  -17.3900 C   0  0  2  0  0  0  0  0  0  0  0  0
   -3.8870    7.2690  -17.9390 C   0  0  0  0  0  0  0  0  0  0  0  0
   -2.5890    7.9450  -17.5170 C   0  0  0  0  0  0  0  0  0  0  0  0
   -1.4460    7.0090  -17.3800 N   0  0  0  0  0  0  0  0  0  0  0  0
   -1.5940    5.8260  -18.2570 C   0  0  0  0  0  0  0  0  0  0  0  0
   -2.7890    4.9710  -17.8530 C   0  0  0  0  0  0  0  0  0  0  0  0
   -5.5920    4.9600  -18.9990 N   0  0  0  0  0  0  0  0  0  0  0  0
   -6.8240    4.4910  -18.9700 C   0  0  0  0  0  0  0  0  0  0  0  0
   -6.3260    4.9630  -15.4610 C   0  0  0  0  0  0  0  0  0  0  0  0
   -7.5030    4.5710  -14.8310 C   0  0  0  0  0  0  0  0  0  0  0  0
   -7.4810    4.7140  -13.3420 C   0  0  0  0  0  0  0  0  0  0  0  0
   -6.6940    5.4800  -12.7960 O   0  0  0  0  0  0  0  0  0  0  0  0
   -8.3460    3.9470  -12.6510 N   0  0  0  0  0  0  0  0  0  0  0  0
   -8.4810    3.9270  -11.2430 C   0  0  0  0  0  0  0  0  0  0  0  0
   -8.6460    2.7110  -10.5890 C   0  0  0  0  0  0  0  0  0  0  0  0
   -8.7710    2.6730   -9.2040 C   0  0  0  0  0  0  0  0  0  0  0  0
   -9.1330    1.5250   -8.3080 C   0  0  0  0  0  0  0  0  0  0  0  0
   -8.8070    2.0760   -6.9960 N   0  0  0  0  0  0  0  0  0  0  0  0
   -8.7500    3.5420   -6.9970 C   0  0  0  0  0  0  0  0  0  0  0  0
   -8.6770    3.8450   -8.4650 C   0  0  0  0  0  0  0  0  0  0  0  0
   -8.5200    5.0630   -9.1180 C   0  0  0  0  0  0  0  0  0  0  0  0
   -8.4350    5.1060  -10.5000 C   0  0  0  0  0  0  0  0  0  0  0  0
  2  1  1  0
  3  2  2  0
  4  2  1  0
  5  4  2  0
  6  5  1  0
  7  6  1  6
  8  7  1  0
  9  8  1  0
 10  9  1  0
 11 10  1  0
 12 11  1  0
 12  7  1  0
 13  6  1  0
 14 13  2  0
 14  4  1  0
 15  5  1  0
 16 15  2  0
 16  3  1  0
 17 16  1  0
 18 17  2  0
 19 17  1  0
 20 19  1  0
 21 20  2  0
 22 21  1  0
 23 22  1  0
 24 23  1  0
 25 24  1  0
 26 25  1  0
 26 22  2  0
 27 26  1  0
 28 20  1  0
 28 27  2  0
M  END
>  <smiles>  (305) 
O=C(Nc1ccc2c(c1)CNC2)c1cc(Cl)c2cnn(C3CCNCC3)c2c1

>  <inchikey>  (305) 
IALOETZQXSJXPT-UHFFFAOYSA-N

>  <alias>  (305) 
Z5042a

$$$$
Z5061a
     RDKit          3D

 25 28  0  0  0  0  0  0  0  0999 V2000
  -10.4370    3.8000  -18.2020 Cl  0  0  0  0  0  0  0  0  0  0  0  0
   -8.9200    4.1710  -17.4230 C   0  0  0  0  0  0  0  0  0  0  0  0
   -8.8690    4.2560  -16.0360 C   0  0  0  0  0  0  0  0  0  0  0  0
   -7.8260    4.4460  -18.2200 C   0  0  0  0  0  0  0  0  0  0  0  0
   -6.6620    4.8480  -17.5870 C   0  0  0  0  0  0  0  0  0  0  0  0
   -5.4360    5.1590  -18.0970 N   0  0  0  0  0  0  0  0  0  0  0  0
   -5.0150    5.1500  -19.4990 C   0  0  2  0  0  0  0  0  0  0  0  0
   -3.5310    4.9020  -19.8430 C   0  0  0  0  0  0  0  0  0  0  0  0
   -3.6710    5.9520  -20.8770 N   0  0  0  0  0  0  0  0  0  0  0  0
   -4.8730    6.5110  -20.2100 C   0  0  0  0  0  0  0  0  0  0  0  0
   -4.5540    5.4900  -17.1050 N   0  0  0  0  0  0  0  0  0  0  0  0
   -5.2190    5.3920  -15.9710 C   0  0  0  0  0  0  0  0  0  0  0  0
   -6.5600    4.9840  -16.1920 C   0  0  0  0  0  0  0  0  0  0  0  0
   -7.6890    4.6810  -15.4060 C   0  0  0  0  0  0  0  0  0  0  0  0
   -7.6210    4.9400  -13.9270 C   0  0  0  0  0  0  0  0  0  0  0  0
   -6.8810    5.8210  -13.4940 O   0  0  0  0  0  0  0  0  0  0  0  0
   -8.3790    4.1580  -13.1120 N   0  0  0  0  0  0  0  0  0  0  0  0
   -8.4440    4.2220  -11.7040 C   0  0  0  0  0  0  0  0  0  0  0  0
   -8.1450    5.4220  -11.1820 N   0  0  0  0  0  0  0  0  0  0  0  0
   -8.1350    5.5320   -9.8440 C   0  0  0  0  0  0  0  0  0  0  0  0
   -8.7520    3.1190  -10.9020 C   0  0  0  0  0  0  0  0  0  0  0  0
   -8.7650    3.2550   -9.5150 C   0  0  0  0  0  0  0  0  0  0  0  0
   -9.2050    2.1020   -8.6440 C   0  0  0  0  0  0  0  0  0  0  0  0
   -8.4290    4.5030   -8.9600 C   0  0  0  0  0  0  0  0  0  0  0  0
   -8.3970    4.7210   -7.4670 C   0  0  0  0  0  0  0  0  0  0  0  0
  2  1  1  0
  3  2  2  0
  4  2  1  0
  5  4  2  0
  6  5  1  0
  7  6  1  1
  8  7  1  0
  9  8  1  0
 10  7  1  0
 10  9  1  0
 11  6  1  0
 12 11  2  0
 13  5  1  0
 13 12  1  0
 14 13  2  0
 14  3  1  0
 15 14  1  0
 16 15  2  0
 17 15  1  0
 18 17  1  0
 19 18  2  0
 20 19  1  0
 21 18  1  0
 22 21  2  0
 23 22  1  0
 24 22  1  0
 24 20  2  0
 25 24  1  0
M  END
>  <smiles>  (306) 
Cc1cnc(NC(=O)c2cc(Cl)cc3c2cnn3C2CNC2)cc1C

>  <inchikey>  (306) 
NTLBBDYGCIMHKP-UHFFFAOYSA-N

>  <alias>  (306) 
Z5061a

$$$$
Z5067a
     RDKit          3D

 25 29  0  0  0  0  0  0  0  0999 V2000
   -6.5910    5.4290  -12.6400 O   0  0  0  0  0  0  0  0  0  0  0  0
   -7.3950    4.7060  -13.2270 C   0  0  0  0  0  0  0  0  0  0  0  0
   -7.3870    4.6130  -14.7220 C   0  0  0  0  0  0  0  0  0  0  0  0
   -6.1880    4.9550  -15.3460 C   0  0  0  0  0  0  0  0  0  0  0  0
   -6.1020    4.9620  -16.7400 C   0  0  0  0  0  0  0  0  0  0  0  0
   -5.0480    5.2360  -17.6850 C   0  0  0  0  0  0  0  0  0  0  0  0
   -5.5700    5.0590  -18.9390 C   0  0  0  0  0  0  0  0  0  0  0  0
   -4.9130    5.1690  -20.2590 C   0  0  1  0  0  0  0  0  0  0  0  0
   -4.7220    6.6070  -20.8010 C   0  0  0  0  0  0  0  0  0  0  0  0
   -3.3700    6.2010  -21.2540 N   0  0  0  0  0  0  0  0  0  0  0  0
   -3.3680    5.0580  -20.3080 C   0  0  0  0  0  0  0  0  0  0  0  0
   -6.8910    4.6940  -18.8340 N   0  0  0  0  0  0  0  0  0  0  0  0
   -7.2380    4.6210  -17.4930 C   0  0  0  0  0  0  0  0  0  0  0  0
   -8.4400    4.2670  -16.8850 C   0  0  0  0  0  0  0  0  0  0  0  0
   -8.5010    4.2650  -15.4970 C   0  0  0  0  0  0  0  0  0  0  0  0
   -8.3070    3.9440  -12.5710 N   0  0  0  0  0  0  0  0  0  0  0  0
   -8.4570    3.8950  -11.1520 C   0  0  0  0  0  0  0  0  0  0  0  0
   -8.6620    2.6830  -10.4950 C   0  0  0  0  0  0  0  0  0  0  0  0
   -8.7790    2.6470   -9.1050 C   0  0  0  0  0  0  0  0  0  0  0  0
   -9.0640    1.4870   -8.1970 C   0  0  0  0  0  0  0  0  0  0  0  0
   -8.8540    2.0560   -6.8650 N   0  0  0  0  0  0  0  0  0  0  0  0
   -8.8250    3.5290   -6.9050 C   0  0  0  0  0  0  0  0  0  0  0  0
   -8.6770    3.8190   -8.3700 C   0  0  0  0  0  0  0  0  0  0  0  0
   -8.4720    5.0300   -9.0240 C   0  0  0  0  0  0  0  0  0  0  0  0
   -8.3690    5.0690  -10.4070 C   0  0  0  0  0  0  0  0  0  0  0  0
  2  1  2  0
  3  2  1  0
  4  3  2  0
  5  4  1  0
  6  5  1  0
  7  6  2  0
  8  7  1  1
  9  8  1  0
 10  9  1  0
 11  8  1  0
 11 10  1  0
 12  7  1  0
 13 12  1  0
 13  5  2  0
 14 13  1  0
 15 14  2  0
 15  3  1  0
 16  2  1  0
 17 16  1  0
 18 17  2  0
 19 18  1  0
 20 19  1  0
 21 20  1  0
 22 21  1  0
 23 22  1  0
 23 19  2  0
 24 23  1  0
 25 17  1  0
 25 24  2  0
M  END
>  <smiles>  (307) 
O=C(Nc1ccc2c(c1)CNC2)c1ccc2[nH]c(C3CNC3)cc2c1

>  <inchikey>  (307) 
CGWIOCGEPDNXNS-UHFFFAOYSA-N

>  <alias>  (307) 
Z5067a

$$$$
Z5082a
     RDKit          3D

 29 31  0  0  0  0  0  0  0  0999 V2000
   -4.5760    5.3660  -17.9310 F   0  0  0  0  0  0  0  0  0  0  0  0
   -5.2220    6.1350  -17.0840 C   0  0  1  0  0  0  0  0  0  0  0  0
   -4.3650    6.3900  -16.1390 F   0  0  0  0  0  0  0  0  0  0  0  0
   -5.4150    7.2610  -17.7750 F   0  0  0  0  0  0  0  0  0  0  0  0
   -6.5010    5.5240  -16.5890 C   0  0  0  0  0  0  0  0  0  0  0  0
   -7.5070    5.2050  -17.4930 C   0  0  0  0  0  0  0  0  0  0  0  0
   -8.6600    4.5480  -17.0900 C   0  0  0  0  0  0  0  0  0  0  0  0
   -9.7420    4.1900  -18.0820 C   0  0  0  0  0  0  0  0  0  0  0  0
   -6.6500    5.1670  -15.2500 C   0  0  0  0  0  0  0  0  0  0  0  0
   -7.7890    4.4880  -14.8220 C   0  0  0  0  0  0  0  0  0  0  0  0
   -8.7860    4.2070  -15.7490 C   0  0  0  0  0  0  0  0  0  0  0  0
   -7.8890    3.9330  -13.4030 C   0  0  1  0  0  0  0  0  0  0  0  0
   -6.8180    2.8310  -13.2480 C   0  0  0  0  0  0  0  0  0  0  0  0
   -5.6680    3.1990  -12.6690 N   0  0  0  0  0  0  0  0  0  0  0  0
   -4.5280    2.2930  -12.5240 C   0  0  0  0  0  0  0  0  0  0  0  0
   -3.3600    2.6210  -13.5630 C   0  0  1  0  0  0  0  0  0  0  0  0
   -3.8950    2.4760  -14.8030 F   0  0  0  0  0  0  0  0  0  0  0  0
   -3.0110    3.9360  -13.4730 F   0  0  0  0  0  0  0  0  0  0  0  0
   -7.0200    1.7020  -13.6780 O   0  0  0  0  0  0  0  0  0  0  0  0
   -7.8010    4.9340  -12.3630 N   0  0  0  0  0  0  0  0  0  0  0  0
   -8.1460    4.6720  -11.0310 C   0  0  0  0  0  0  0  0  0  0  0  0
   -8.4850    3.3970  -10.5550 C   0  0  0  0  0  0  0  0  0  0  0  0
   -8.6760    3.1910   -9.1830 C   0  0  0  0  0  0  0  0  0  0  0  0
   -9.0560    1.9510   -8.4250 C   0  0  0  0  0  0  0  0  0  0  0  0
   -8.8330    2.3400   -6.9910 N   0  0  0  0  0  0  0  0  0  0  0  0
   -8.8350    3.8090   -6.8960 C   0  0  0  0  0  0  0  0  0  0  0  0
   -8.5500    4.2590   -8.3000 C   0  0  0  0  0  0  0  0  0  0  0  0
   -8.2670    5.5330   -8.7850 C   0  0  0  0  0  0  0  0  0  0  0  0
   -8.0730    5.7380  -10.1410 C   0  0  0  0  0  0  0  0  0  0  0  0
  2  1  1  6
  3  2  1  0
  4  2  1  0
  5  2  1  0
  6  5  2  0
  7  6  1  0
  8  7  1  0
  9  5  1  0
 10  9  2  0
 11  7  2  0
 11 10  1  0
 12 10  1  0
 13 12  1  0
 14 13  1  0
 15 14  1  0
 16 15  1  0
 16 17  1  6
 18 16  1  0
 19 13  2  0
 12 20  1  1
 21 20  1  0
 22 21  2  0
 23 22  1  0
 24 23  1  0
 25 24  1  0
 26 25  1  0
 27 26  1  0
 27 23  2  0
 28 27  1  0
 29 21  1  0
 29 28  2  0
M  END
>  <smiles>  (308) 
Cc1cc([C@H](Nc2ccc3c(c2)CNC3)C(=O)NCC(F)F)cc(C(F)(F)F)c1

>  <inchikey>  (308) 
DXHLVVVVEFLCRN-SFHVURJKSA-N

>  <alias>  (308) 
Z5082a

$$$$
Z5084a
     RDKit          3D

 33 37  0  0  0  0  0  0  0  0999 V2000
  -10.4830    3.8100  -17.9570 Cl  0  0  0  0  0  0  0  0  0  0  0  0
   -9.0000    4.2710  -17.1650 C   0  0  0  0  0  0  0  0  0  0  0  0
   -8.8800    4.1030  -15.7930 C   0  0  0  0  0  0  0  0  0  0  0  0
   -7.9720    4.7700  -17.9370 C   0  0  0  0  0  0  0  0  0  0  0  0
   -6.7830    5.0950  -17.3040 C   0  0  0  0  0  0  0  0  0  0  0  0
   -6.6190    4.8960  -15.9310 C   0  0  0  0  0  0  0  0  0  0  0  0
   -5.2910    5.1070  -15.5740 N   0  0  0  0  0  0  0  0  0  0  0  0
   -4.6720    5.3870  -16.7150 C   0  0  0  0  0  0  0  0  0  0  0  0
   -3.2190    5.5770  -16.8560 C   0  0  0  0  0  0  0  0  0  0  0  0
   -2.6020    5.3760  -18.0890 C   0  0  0  0  0  0  0  0  0  0  0  0
   -1.2450    5.6050  -18.2390 C   0  0  0  0  0  0  0  0  0  0  0  0
   -0.4890    6.0350  -17.1670 C   0  0  0  0  0  0  0  0  0  0  0  0
   -1.0890    6.2340  -15.9400 C   0  0  0  0  0  0  0  0  0  0  0  0
   -2.4460    6.0030  -15.7800 C   0  0  0  0  0  0  0  0  0  0  0  0
   -5.5220    5.4050  -17.7800 N   0  0  0  0  0  0  0  0  0  0  0  0
   -7.6770    4.4040  -15.1450 C   0  0  0  0  0  0  0  0  0  0  0  0
   -7.4930    4.1740  -13.6470 C   0  0  2  0  0  0  0  0  0  0  0  0
   -6.7070    2.8790  -13.3460 C   0  0  0  0  0  0  0  0  0  0  0  0
   -7.1100    1.7850  -13.7350 O   0  0  0  0  0  0  0  0  0  0  0  0
   -5.6080    3.0310  -12.5970 N   0  0  0  0  0  0  0  0  0  0  0  0
   -4.5130    2.0600  -12.5630 C   0  0  2  0  0  0  0  0  0  0  0  0
   -3.7550    2.1930  -11.2600 C   0  0  0  0  0  0  0  0  0  0  0  0
   -3.6120    2.2500  -13.7660 C   0  0  0  0  0  0  0  0  0  0  0  0
   -8.6920    4.2030  -12.8330 N   0  0  0  0  0  0  0  0  0  0  0  0
   -8.6160    4.1410  -11.4370 C   0  0  0  0  0  0  0  0  0  0  0  0
   -8.9310    2.9570  -10.7710 C   0  0  0  0  0  0  0  0  0  0  0  0
   -8.8960    2.8970   -9.3790 C   0  0  0  0  0  0  0  0  0  0  0  0
   -9.2100    1.7610   -8.4500 C   0  0  0  0  0  0  0  0  0  0  0  0
   -8.8020    2.2890   -7.1490 N   0  0  0  0  0  0  0  0  0  0  0  0
   -8.6300    3.7420   -7.1780 C   0  0  0  0  0  0  0  0  0  0  0  0
   -8.5400    4.0250   -8.6500 C   0  0  0  0  0  0  0  0  0  0  0  0
   -8.1960    5.1980   -9.3140 C   0  0  0  0  0  0  0  0  0  0  0  0
   -8.2300    5.2570  -10.6990 C   0  0  0  0  0  0  0  0  0  0  0  0
  2  1  1  0
  3  2  2  0
  4  2  1  0
  5  4  2  0
  6  5  1  0
  7  6  1  0
  8  7  2  0
  9  8  1  0
 10  9  2  0
 11 10  1  0
 12 11  2  0
 13 12  1  0
 14  9  1  0
 14 13  2  0
 15  5  1  0
 15  8  1  0
 16  6  2  0
 16  3  1  0
 17 16  1  0
 18 17  1  0
 19 18  2  0
 20 18  1  0
 21 20  1  0
 21 22  1  1
 23 21  1  0
 17 24  1  1
 25 24  1  0
 26 25  2  0
 27 26  1  0
 28 27  1  0
 29 28  1  0
 30 29  1  0
 31 30  1  0
 31 27  2  0
 32 31  1  0
 33 25  1  0
 33 32  2  0
M  END
>  <smiles>  (309) 
CC(C)NC(=O)[C@H](Nc1ccc2c(c1)CNC2)c1cc(Cl)cc2[nH]c(-c3ccccc3)nc12

>  <inchikey>  (309) 
NXAMBTBBWHMYHI-XMMPIXPASA-N

>  <alias>  (309) 
Z5084a

$$$$
Z5085a
     RDKit          3D

 33 37  0  0  0  0  0  0  0  0999 V2000
  -10.5710    3.8930  -18.0090 Cl  0  0  0  0  0  0  0  0  0  0  0  0
   -9.0680    4.3030  -17.2310 C   0  0  0  0  0  0  0  0  0  0  0  0
   -8.9680    4.1860  -15.8520 C   0  0  0  0  0  0  0  0  0  0  0  0
   -8.0040    4.6900  -18.0170 C   0  0  0  0  0  0  0  0  0  0  0  0
   -6.7940    4.9460  -17.3910 C   0  0  0  0  0  0  0  0  0  0  0  0
   -6.6580    4.8090  -16.0070 C   0  0  0  0  0  0  0  0  0  0  0  0
   -5.3340    5.0050  -15.6380 N   0  0  0  0  0  0  0  0  0  0  0  0
   -4.6900    5.2300  -16.7770 C   0  0  0  0  0  0  0  0  0  0  0  0
   -3.2470    5.4990  -16.8700 C   0  0  0  0  0  0  0  0  0  0  0  0
   -2.4740    5.5950  -15.7150 C   0  0  0  0  0  0  0  0  0  0  0  0
   -1.1240    5.8920  -15.7990 C   0  0  0  0  0  0  0  0  0  0  0  0
   -0.5280    6.0910  -17.0290 C   0  0  0  0  0  0  0  0  0  0  0  0
   -1.2850    5.9910  -18.1820 C   0  0  0  0  0  0  0  0  0  0  0  0
   -2.6350    5.6970  -18.1070 C   0  0  0  0  0  0  0  0  0  0  0  0
   -5.5180    5.2020  -17.8600 N   0  0  0  0  0  0  0  0  0  0  0  0
   -7.7510    4.4240  -15.2090 C   0  0  0  0  0  0  0  0  0  0  0  0
   -7.5870    4.2210  -13.7040 C   0  0  2  0  0  0  0  0  0  0  0  0
   -6.7510    2.9620  -13.3830 C   0  0  0  0  0  0  0  0  0  0  0  0
   -7.1120    1.8450  -13.7430 O   0  0  0  0  0  0  0  0  0  0  0  0
   -5.6480    3.1740  -12.6610 N   0  0  0  0  0  0  0  0  0  0  0  0
   -4.6080    2.1630  -12.4660 C   0  0  1  0  0  0  0  0  0  0  0  0
   -3.6350    2.1890  -13.6280 C   0  0  0  0  0  0  0  0  0  0  0  0
   -3.9180    2.3830  -11.1370 C   0  0  0  0  0  0  0  0  0  0  0  0
   -8.8020    4.1770  -12.9130 N   0  0  0  0  0  0  0  0  0  0  0  0
   -8.7370    4.1780  -11.5140 C   0  0  0  0  0  0  0  0  0  0  0  0
   -9.0250    3.0260  -10.7850 C   0  0  0  0  0  0  0  0  0  0  0  0
   -8.9290    3.0280   -9.3940 C   0  0  0  0  0  0  0  0  0  0  0  0
   -9.1730    1.9210   -8.4090 C   0  0  0  0  0  0  0  0  0  0  0  0
   -8.8660    2.5410   -7.1260 N   0  0  0  0  0  0  0  0  0  0  0  0
   -8.5960    3.9750   -7.2460 C   0  0  0  0  0  0  0  0  0  0  0  0
   -8.5560    4.1890   -8.7310 C   0  0  0  0  0  0  0  0  0  0  0  0
   -8.2520    5.3340   -9.4590 C   0  0  0  0  0  0  0  0  0  0  0  0
   -8.3400    5.3310  -10.8410 C   0  0  0  0  0  0  0  0  0  0  0  0
  2  1  1  0
  3  2  2  0
  4  2  1  0
  5  4  2  0
  6  5  1  0
  7  6  1  0
  8  7  2  0
  9  8  1  0
 10  9  2  0
 11 10  1  0
 12 11  2  0
 13 12  1  0
 14 13  2  0
 14  9  1  0
 15  5  1  0
 15  8  1  0
 16  6  2  0
 16  3  1  0
 17 16  1  0
 18 17  1  0
 19 18  2  0
 20 18  1  0
 21 20  1  0
 21 22  1  6
 23 21  1  0
 17 24  1  1
 25 24  1  0
 26 25  2  0
 27 26  1  0
 28 27  1  0
 29 28  1  0
 30 29  1  0
 31 30  1  0
 31 27  2  0
 32 31  1  0
 33 25  1  0
 33 32  2  0
M  END
>  <smiles>  (310) 
CC(C)NC(=O)[C@H](Nc1ccc2c(c1)CNC2)c1cc(Cl)cc2[nH]c(-c3ccccc3)nc12

>  <inchikey>  (310) 
NXAMBTBBWHMYHI-XMMPIXPASA-N

>  <alias>  (310) 
Z5085a

$$$$
Z5086a
     RDKit          3D

 22 25  0  0  0  0  0  0  0  0999 V2000
  -10.3760    3.8560  -18.0800 Cl  0  0  0  0  0  0  0  0  0  0  0  0
   -8.8640    4.1860  -17.2610 C   0  0  0  0  0  0  0  0  0  0  0  0
   -8.8390    4.2310  -15.8710 C   0  0  0  0  0  0  0  0  0  0  0  0
   -7.7390    4.4300  -18.0220 C   0  0  0  0  0  0  0  0  0  0  0  0
   -6.5530    4.7220  -17.3620 C   0  0  0  0  0  0  0  0  0  0  0  0
   -6.4730    4.7930  -15.9570 C   0  0  0  0  0  0  0  0  0  0  0  0
   -5.1080    5.0690  -15.6970 C   0  0  0  0  0  0  0  0  0  0  0  0
   -4.4090    5.1360  -16.8160 N   0  0  0  0  0  0  0  0  0  0  0  0
   -5.2940    4.9310  -17.8300 N   0  0  0  0  0  0  0  0  0  0  0  0
   -7.6450    4.5470  -15.1980 C   0  0  0  0  0  0  0  0  0  0  0  0
   -7.5830    4.6930  -13.6940 C   0  0  0  0  0  0  0  0  0  0  0  0
   -6.7110    5.3770  -13.1690 O   0  0  0  0  0  0  0  0  0  0  0  0
   -8.4760    3.9880  -12.9590 N   0  0  0  0  0  0  0  0  0  0  0  0
   -8.5380    3.9690  -11.5210 C   0  0  0  0  0  0  0  0  0  0  0  0
   -8.7050    2.7730  -10.8250 C   0  0  0  0  0  0  0  0  0  0  0  0
   -8.7420    2.7610   -9.4320 C   0  0  0  0  0  0  0  0  0  0  0  0
   -9.0440    1.6250   -8.4980 C   0  0  0  0  0  0  0  0  0  0  0  0
   -8.6700    2.1880   -7.1690 N   0  0  0  0  0  0  0  0  0  0  0  0
   -8.6570    3.6810   -7.2490 C   0  0  0  0  0  0  0  0  0  0  0  0
   -8.5930    3.9470   -8.7250 C   0  0  0  0  0  0  0  0  0  0  0  0
   -8.4240    5.1470   -9.4140 C   0  0  0  0  0  0  0  0  0  0  0  0
   -8.3970    5.1590  -10.8020 C   0  0  0  0  0  0  0  0  0  0  0  0
  2  1  1  0
  3  2  2  0
  4  2  1  0
  5  4  2  0
  6  5  1  0
  7  6  1  0
  8  7  2  0
  9  5  1  0
  9  8  1  0
 10  6  2  0
 10  3  1  0
 11 10  1  0
 12 11  2  0
 13 11  1  0
 14 13  1  0
 15 14  2  0
 16 15  1  0
 17 16  1  0
 18 17  1  0
 19 18  1  0
 20 19  1  0
 20 16  2  0
 21 20  1  0
 22 14  1  0
 22 21  2  0
M  END
>  <smiles>  (311) 
O=C(Nc1ccc2c(c1)CNC2)c1cc(Cl)cc2[nH]ncc12

>  <inchikey>  (311) 
WHSNUVFYTJYWKN-UHFFFAOYSA-N

>  <alias>  (311) 
Z5086a

$$$$
Z5122a
     RDKit          3D

 27 31  0  0  0  0  0  0  0  0999 V2000
   -9.7390    3.6850  -18.0330 Cl  0  0  0  0  0  0  0  0  0  0  0  0
   -8.4030    4.2220  -17.0630 C   0  0  0  0  0  0  0  0  0  0  0  0
   -8.5000    4.1990  -15.6770 C   0  0  0  0  0  0  0  0  0  0  0  0
   -7.2250    4.6340  -17.6870 C   0  0  0  0  0  0  0  0  0  0  0  0
   -6.1130    4.9950  -16.9040 C   0  0  0  0  0  0  0  0  0  0  0  0
   -5.0370    5.2900  -17.8110 C   0  0  0  0  0  0  0  0  0  0  0  0
   -3.6140    5.5590  -17.4060 C   0  0  2  0  0  0  0  0  0  0  0  0
   -3.4090    7.0780  -17.1440 C   0  0  0  0  0  0  0  0  0  0  0  0
   -2.8330    7.5820  -18.3770 N   0  0  0  0  0  0  0  0  0  0  0  0
   -1.8230    6.5690  -18.7110 C   0  0  0  0  0  0  0  0  0  0  0  0
   -2.5300    5.2380  -18.4570 C   0  0  0  0  0  0  0  0  0  0  0  0
   -5.5480    5.1480  -19.0700 C   0  0  0  0  0  0  0  0  0  0  0  0
   -6.8630    4.7490  -19.0080 N   0  0  0  0  0  0  0  0  0  0  0  0
   -6.2160    4.9740  -15.5100 C   0  0  0  0  0  0  0  0  0  0  0  0
   -7.4060    4.5850  -14.8960 C   0  0  0  0  0  0  0  0  0  0  0  0
   -7.3830    4.6790  -13.3970 C   0  0  0  0  0  0  0  0  0  0  0  0
   -6.5520    5.3800  -12.8170 O   0  0  0  0  0  0  0  0  0  0  0  0
   -8.3020    3.9440  -12.7330 N   0  0  0  0  0  0  0  0  0  0  0  0
   -8.4410    3.9090  -11.3130 C   0  0  0  0  0  0  0  0  0  0  0  0
   -8.6390    2.6990  -10.6540 C   0  0  0  0  0  0  0  0  0  0  0  0
   -8.7170    2.6610   -9.2600 C   0  0  0  0  0  0  0  0  0  0  0  0
   -8.9790    1.4970   -8.3500 C   0  0  0  0  0  0  0  0  0  0  0  0
   -8.6840    2.0530   -7.0180 N   0  0  0  0  0  0  0  0  0  0  0  0
   -8.6660    3.5390   -7.0550 C   0  0  0  0  0  0  0  0  0  0  0  0
   -8.5890    3.8330   -8.5250 C   0  0  0  0  0  0  0  0  0  0  0  0
   -8.4070    5.0450   -9.1810 C   0  0  0  0  0  0  0  0  0  0  0  0
   -8.3230    5.0830  -10.5690 C   0  0  0  0  0  0  0  0  0  0  0  0
  2  1  1  0
  3  2  2  0
  4  2  1  0
  5  4  2  0
  6  5  1  0
  7  6  1  6
  8  7  1  0
  9  8  1  0
 10  9  1  0
 11 10  1  0
 11  7  1  0
 12  6  2  0
 13 12  1  0
 13  4  1  0
 14  5  1  0
 15 14  2  0
 15  3  1  0
 16 15  1  0
 17 16  2  0
 18 16  1  0
 19 18  1  0
 20 19  2  0
 21 20  1  0
 22 21  1  0
 23 22  1  0
 24 23  1  0
 25 24  1  0
 25 21  2  0
 26 25  1  0
 27 19  1  0
 27 26  2  0
M  END
>  <smiles>  (312) 
O=C(Nc1ccc2c(c1)CNC2)c1cc(Cl)c2[nH]cc([C@H]3CCNC3)c2c1

>  <inchikey>  (312) 
YDZDOWXTDRBPCC-ZDUSSCGKSA-N

>  <alias>  (312) 
Z5122a

$$$$
Z5124a
     RDKit          3D

 28 32  0  0  0  0  0  0  0  0999 V2000
  -10.2470    3.9060  -18.0800 Cl  0  0  0  0  0  0  0  0  0  0  0  0
   -8.7530    4.2410  -17.2370 C   0  0  0  0  0  0  0  0  0  0  0  0
   -8.7420    4.2450  -15.8440 C   0  0  0  0  0  0  0  0  0  0  0  0
   -7.6150    4.4920  -17.9830 C   0  0  0  0  0  0  0  0  0  0  0  0
   -6.4430    4.7550  -17.2860 C   0  0  0  0  0  0  0  0  0  0  0  0
   -5.1900    5.0600  -17.7360 N   0  0  0  0  0  0  0  0  0  0  0  0
   -4.7730    5.2760  -19.1280 C   0  0  2  0  0  0  0  0  0  0  0  0
   -3.3950    4.6890  -19.3710 C   0  0  0  0  0  0  0  0  0  0  0  0
   -2.9800    4.8550  -20.7700 N   0  0  0  0  0  0  0  0  0  0  0  0
   -2.9770    6.2870  -21.1760 C   0  0  0  0  0  0  0  0  0  0  0  0
   -4.3440    6.9360  -20.9770 C   0  0  0  0  0  0  0  0  0  0  0  0
   -4.8230    6.7490  -19.5300 C   0  0  0  0  0  0  0  0  0  0  0  0
   -4.3170    5.2400  -16.6980 N   0  0  0  0  0  0  0  0  0  0  0  0
   -5.0170    5.0660  -15.5940 C   0  0  0  0  0  0  0  0  0  0  0  0
   -6.3730    4.7630  -15.8820 C   0  0  0  0  0  0  0  0  0  0  0  0
   -7.5530    4.5150  -15.1510 C   0  0  0  0  0  0  0  0  0  0  0  0
   -7.5190    4.6740  -13.6520 C   0  0  0  0  0  0  0  0  0  0  0  0
   -6.6530    5.3740  -13.1270 O   0  0  0  0  0  0  0  0  0  0  0  0
   -8.4410    3.9830  -12.9200 N   0  0  0  0  0  0  0  0  0  0  0  0
   -8.5310    3.9700  -11.4920 C   0  0  0  0  0  0  0  0  0  0  0  0
   -8.7440    2.7950  -10.7730 C   0  0  0  0  0  0  0  0  0  0  0  0
   -8.8090    2.8200   -9.3790 C   0  0  0  0  0  0  0  0  0  0  0  0
   -9.1500    1.7280   -8.4070 C   0  0  0  0  0  0  0  0  0  0  0  0
   -8.8730    2.3540   -7.1030 N   0  0  0  0  0  0  0  0  0  0  0  0
   -8.7250    3.8040   -7.2170 C   0  0  0  0  0  0  0  0  0  0  0  0
   -8.6260    4.0190   -8.7000 C   0  0  0  0  0  0  0  0  0  0  0  0
   -8.3950    5.1890   -9.4130 C   0  0  0  0  0  0  0  0  0  0  0  0
   -8.3610    5.1700  -10.8000 C   0  0  0  0  0  0  0  0  0  0  0  0
  2  1  1  0
  3  2  2  0
  4  2  1  0
  5  4  2  0
  6  5  1  0
  7  6  1  1
  8  7  1  0
  9  8  1  0
 10  9  1  0
 11 10  1  0
 12  7  1  0
 12 11  1  0
 13  6  1  0
 14 13  2  0
 15  5  1  0
 15 14  1  0
 16 15  2  0
 16  3  1  0
 17 16  1  0
 18 17  2  0
 19 17  1  0
 20 19  1  0
 21 20  2  0
 22 21  1  0
 23 22  1  0
 24 23  1  0
 25 24  1  0
 26 25  1  0
 26 22  2  0
 27 26  1  0
 28 20  1  0
 28 27  2  0
M  END
>  <smiles>  (313) 
O=C(Nc1ccc2c(c1)CNC2)c1cc(Cl)cc2c1cnn2[C@H]1CCCNC1

>  <inchikey>  (313) 
NXEDFFZXXDQCPA-KRWDZBQOSA-N

>  <alias>  (313) 
Z5124a

$$$$
Z5136a
     RDKit          3D

 24 27  0  0  0  0  0  0  0  0999 V2000
  -10.1430    3.7810  -17.6380 F   0  0  0  0  0  0  0  0  0  0  0  0
   -8.9700    4.0880  -17.0230 C   0  0  0  0  0  0  0  0  0  0  0  0
   -8.9470    4.1810  -15.6490 C   0  0  0  0  0  0  0  0  0  0  0  0
   -7.8780    4.3240  -17.8140 C   0  0  0  0  0  0  0  0  0  0  0  0
   -6.6830    4.6820  -17.2000 C   0  0  0  0  0  0  0  0  0  0  0  0
   -5.4930    4.9550  -18.0230 C   0  0  0  0  0  0  0  0  0  0  0  0
   -4.2380    5.1390  -17.4690 N   0  0  0  0  0  0  0  0  0  0  0  0
   -3.4850    5.3910  -18.4790 C   0  0  0  0  0  0  0  0  0  0  0  0
   -4.1330    5.3820  -19.6900 O   0  0  0  0  0  0  0  0  0  0  0  0
   -5.4220    5.0980  -19.3550 C   0  0  0  0  0  0  0  0  0  0  0  0
   -6.6190    4.7880  -15.8110 C   0  0  0  0  0  0  0  0  0  0  0  0
   -7.7460    4.5320  -15.0300 C   0  0  0  0  0  0  0  0  0  0  0  0
   -7.6090    4.6630  -13.5380 C   0  0  0  0  0  0  0  0  0  0  0  0
   -6.7620    5.4070  -13.0480 O   0  0  0  0  0  0  0  0  0  0  0  0
   -8.4540    3.9150  -12.7790 N   0  0  0  0  0  0  0  0  0  0  0  0
   -8.5250    3.8860  -11.3540 C   0  0  0  0  0  0  0  0  0  0  0  0
   -8.7890    2.6980  -10.6730 C   0  0  0  0  0  0  0  0  0  0  0  0
   -8.8420    2.6790   -9.2800 C   0  0  0  0  0  0  0  0  0  0  0  0
   -9.1730    1.5580   -8.3390 C   0  0  0  0  0  0  0  0  0  0  0  0
   -8.9000    2.1450   -7.0170 N   0  0  0  0  0  0  0  0  0  0  0  0
   -8.7640    3.5980   -7.0910 C   0  0  0  0  0  0  0  0  0  0  0  0
   -8.6180    3.8500   -8.5650 C   0  0  0  0  0  0  0  0  0  0  0  0
   -8.3670    5.0370   -9.2410 C   0  0  0  0  0  0  0  0  0  0  0  0
   -8.3270    5.0590  -10.6270 C   0  0  0  0  0  0  0  0  0  0  0  0
  2  1  1  0
  3  2  2  0
  4  2  1  0
  5  4  2  0
  6  5  1  0
  7  6  1  0
  8  7  2  0
  9  8  1  0
 10  6  2  0
 10  9  1  0
 11  5  1  0
 12 11  2  0
 12  3  1  0
 13 12  1  0
 14 13  2  0
 15 13  1  0
 16 15  1  0
 17 16  2  0
 18 17  1  0
 19 18  1  0
 20 19  1  0
 21 20  1  0
 22 21  1  0
 22 18  2  0
 23 22  1  0
 24 16  1  0
 24 23  2  0
M  END
>  <smiles>  (314) 
O=C(Nc1ccc2c(c1)CNC2)c1cc(F)cc(-c2cocn2)c1

>  <inchikey>  (314) 
FORHHOLCIXSUOC-UHFFFAOYSA-N

>  <alias>  (314) 
Z5136a

$$$$
Z5139a
     RDKit          3D

 24 27  0  0  0  0  0  0  0  0999 V2000
   -9.9860    3.8350  -17.6820 F   0  0  0  0  0  0  0  0  0  0  0  0
   -8.8070    4.0830  -17.0410 C   0  0  0  0  0  0  0  0  0  0  0  0
   -8.8080    4.1380  -15.6660 C   0  0  0  0  0  0  0  0  0  0  0  0
   -7.7040    4.3670  -17.8090 C   0  0  0  0  0  0  0  0  0  0  0  0
   -6.5310    4.7540  -17.1650 C   0  0  0  0  0  0  0  0  0  0  0  0
   -5.3140    5.0270  -17.9550 C   0  0  0  0  0  0  0  0  0  0  0  0
   -4.1220    5.1690  -17.3600 N   0  0  0  0  0  0  0  0  0  0  0  0
   -3.2330    5.3160  -18.3760 N   0  0  0  0  0  0  0  0  0  0  0  0
   -3.8330    5.2900  -19.5710 C   0  0  0  0  0  0  0  0  0  0  0  0
   -5.1730    5.1050  -19.3540 C   0  0  0  0  0  0  0  0  0  0  0  0
   -6.5020    4.8460  -15.7740 C   0  0  0  0  0  0  0  0  0  0  0  0
   -7.6360    4.5320  -15.0220 C   0  0  0  0  0  0  0  0  0  0  0  0
   -7.5380    4.6600  -13.5320 C   0  0  0  0  0  0  0  0  0  0  0  0
   -6.7140    5.4150  -13.0240 O   0  0  0  0  0  0  0  0  0  0  0  0
   -8.3950    3.9070  -12.7940 N   0  0  0  0  0  0  0  0  0  0  0  0
   -8.5140    3.9330  -11.3730 C   0  0  0  0  0  0  0  0  0  0  0  0
   -8.7210    2.7410  -10.6820 C   0  0  0  0  0  0  0  0  0  0  0  0
   -8.8060    2.7370   -9.2940 C   0  0  0  0  0  0  0  0  0  0  0  0
   -9.0920    1.6000   -8.3560 C   0  0  0  0  0  0  0  0  0  0  0  0
   -8.8400    2.1900   -7.0290 N   0  0  0  0  0  0  0  0  0  0  0  0
   -8.8190    3.6660   -7.1130 C   0  0  0  0  0  0  0  0  0  0  0  0
   -8.6600    3.9210   -8.5840 C   0  0  0  0  0  0  0  0  0  0  0  0
   -8.4430    5.1160   -9.2690 C   0  0  0  0  0  0  0  0  0  0  0  0
   -8.3810    5.1250  -10.6560 C   0  0  0  0  0  0  0  0  0  0  0  0
  2  1  1  0
  3  2  2  0
  4  2  1  0
  5  4  2  0
  6  5  1  0
  7  6  2  0
  8  7  1  0
  9  8  1  0
 10  9  2  0
 10  6  1  0
 11  5  1  0
 12 11  2  0
 12  3  1  0
 13 12  1  0
 14 13  2  0
 15 13  1  0
 16 15  1  0
 17 16  2  0
 18 17  1  0
 19 18  1  0
 20 19  1  0
 21 20  1  0
 22 21  1  0
 22 18  2  0
 23 22  1  0
 24 16  1  0
 24 23  2  0
M  END
>  <smiles>  (315) 
O=C(Nc1ccc2c(c1)CNC2)c1cc(F)cc(-c2cc[nH]n2)c1

>  <inchikey>  (315) 
RDWLEMPIMOWHNX-UHFFFAOYSA-N

>  <alias>  (315) 
Z5139a

$$$$
Z5148a
     RDKit          3D

 21 23  0  0  0  0  0  0  0  0999 V2000
   -7.7250    6.4980  -12.4230 O   0  0  0  0  0  0  0  0  0  0  0  0
   -7.8230    5.3510  -12.8550 C   0  0  0  0  0  0  0  0  0  0  0  0
   -7.4740    5.0190  -14.2860 C   0  0  0  0  0  0  0  0  0  0  0  0
   -8.6950    4.9010  -15.1650 C   0  0  0  0  0  0  0  0  0  0  0  0
   -8.2910    4.6670  -16.5980 C   0  0  0  0  0  0  0  0  0  0  0  0
   -9.4250    4.0670  -17.7250 S   0  0  0  0  0  0  0  0  0  0  0  0
   -8.2710    4.1040  -18.9880 C   0  0  0  0  0  0  0  0  0  0  0  0
   -7.0830    4.8880  -17.1840 C   0  0  0  0  0  0  0  0  0  0  0  0
   -7.0600    4.5730  -18.5730 C   0  0  0  0  0  0  0  0  0  0  0  0
   -5.9130    4.7790  -19.5250 C   0  0  0  0  0  0  0  0  0  0  0  0
   -6.0600    6.0960  -20.1750 N   0  0  0  0  0  0  0  0  0  0  0  0
   -8.2260    4.2880  -12.1130 N   0  0  0  0  0  0  0  0  0  0  0  0
   -8.4100    4.2000  -10.7120 C   0  0  0  0  0  0  0  0  0  0  0  0
   -8.7130    2.9670  -10.1380 C   0  0  0  0  0  0  0  0  0  0  0  0
   -8.8690    2.8540   -8.7590 C   0  0  0  0  0  0  0  0  0  0  0  0
   -9.1950    1.6520   -7.9200 C   0  0  0  0  0  0  0  0  0  0  0  0
   -8.8410    2.1350   -6.5830 N   0  0  0  0  0  0  0  0  0  0  0  0
   -8.8160    3.5910   -6.5030 C   0  0  0  0  0  0  0  0  0  0  0  0
   -8.7120    3.9740   -7.9510 C   0  0  0  0  0  0  0  0  0  0  0  0
   -8.4250    5.2070   -8.5250 C   0  0  0  0  0  0  0  0  0  0  0  0
   -8.2740    5.3210   -9.8960 C   0  0  0  0  0  0  0  0  0  0  0  0
  2  1  2  0
  3  2  1  0
  4  3  1  0
  5  4  1  0
  6  5  1  0
  7  6  1  0
  8  5  2  0
  9  8  1  0
  9  7  2  0
 10  9  1  0
 11 10  1  0
 12  2  1  0
 13 12  1  0
 14 13  2  0
 15 14  1  0
 16 15  1  0
 17 16  1  0
 18 17  1  0
 19 18  1  0
 19 15  2  0
 20 19  1  0
 21 20  2  0
 21 13  1  0
M  END
>  <smiles>  (316) 
NCc1csc(CCC(=O)Nc2ccc3c(c2)CNC3)c1

>  <inchikey>  (316) 
PSESQEJGIMKBRZ-UHFFFAOYSA-N

>  <alias>  (316) 
Z5148a

$$$$
Z5171a
     RDKit          3D

 24 27  0  0  0  0  0  0  0  0999 V2000
   -9.9970    3.8140  -17.6720 F   0  0  0  0  0  0  0  0  0  0  0  0
   -8.8120    4.0690  -17.0450 C   0  0  0  0  0  0  0  0  0  0  0  0
   -8.8060    4.1320  -15.6680 C   0  0  0  0  0  0  0  0  0  0  0  0
   -7.7080    4.3340  -17.8190 C   0  0  0  0  0  0  0  0  0  0  0  0
   -6.5270    4.7090  -17.1790 C   0  0  0  0  0  0  0  0  0  0  0  0
   -5.3020    4.9600  -17.9620 C   0  0  0  0  0  0  0  0  0  0  0  0
   -5.3350    5.0190  -19.3010 N   0  0  0  0  0  0  0  0  0  0  0  0
   -4.0510    5.2460  -19.6790 N   0  0  0  0  0  0  0  0  0  0  0  0
   -3.2300    5.3330  -18.6260 C   0  0  0  0  0  0  0  0  0  0  0  0
   -3.9900    5.1640  -17.4980 C   0  0  0  0  0  0  0  0  0  0  0  0
   -6.4920    4.8080  -15.7880 C   0  0  0  0  0  0  0  0  0  0  0  0
   -7.6280    4.5150  -15.0310 C   0  0  0  0  0  0  0  0  0  0  0  0
   -7.5340    4.6720  -13.5430 C   0  0  0  0  0  0  0  0  0  0  0  0
   -6.7110    5.4330  -13.0450 O   0  0  0  0  0  0  0  0  0  0  0  0
   -8.3770    3.9170  -12.7980 N   0  0  0  0  0  0  0  0  0  0  0  0
   -8.4720    3.9180  -11.3740 C   0  0  0  0  0  0  0  0  0  0  0  0
   -8.7300    2.7280  -10.6960 C   0  0  0  0  0  0  0  0  0  0  0  0
   -8.8200    2.7110   -9.3040 C   0  0  0  0  0  0  0  0  0  0  0  0
   -9.1040    1.5750   -8.3640 C   0  0  0  0  0  0  0  0  0  0  0  0
   -8.7980    2.1460   -7.0300 N   0  0  0  0  0  0  0  0  0  0  0  0
   -8.7740    3.6170   -7.1130 C   0  0  0  0  0  0  0  0  0  0  0  0
   -8.6400    3.8860   -8.5850 C   0  0  0  0  0  0  0  0  0  0  0  0
   -8.3890    5.0790   -9.2580 C   0  0  0  0  0  0  0  0  0  0  0  0
   -8.3110    5.1000  -10.6450 C   0  0  0  0  0  0  0  0  0  0  0  0
  2  1  1  0
  3  2  2  0
  4  2  1  0
  5  4  2  0
  6  5  1  0
  7  6  2  0
  8  7  1  0
  9  8  1  0
 10  9  2  0
 10  6  1  0
 11  5  1  0
 12 11  2  0
 12  3  1  0
 13 12  1  0
 14 13  2  0
 15 13  1  0
 16 15  1  0
 17 16  2  0
 18 17  1  0
 19 18  1  0
 20 19  1  0
 21 20  1  0
 22 21  1  0
 22 18  2  0
 23 22  1  0
 24 16  1  0
 24 23  2  0
M  END
>  <smiles>  (317) 
O=C(Nc1ccc2c(c1)CNC2)c1cc(F)cc(-c2cc[nH]n2)c1

>  <inchikey>  (317) 
RDWLEMPIMOWHNX-UHFFFAOYSA-N

>  <alias>  (317) 
Z5171a

$$$$
Z5197a
     RDKit          3D

 22 25  0  0  0  0  0  0  0  0999 V2000
  -10.5400    3.9230  -18.2850 Cl  0  0  0  0  0  0  0  0  0  0  0  0
   -9.0360    4.3540  -17.5090 C   0  0  0  0  0  0  0  0  0  0  0  0
   -8.9930    4.4520  -16.1250 C   0  0  0  0  0  0  0  0  0  0  0  0
   -7.9360    4.6270  -18.3020 C   0  0  0  0  0  0  0  0  0  0  0  0
   -6.7720    5.0240  -17.6640 C   0  0  0  0  0  0  0  0  0  0  0  0
   -5.5340    5.3140  -18.1650 N   0  0  0  0  0  0  0  0  0  0  0  0
   -5.0820    5.3060  -19.5580 C   0  0  2  0  0  0  0  0  0  0  0  0
   -3.5860    5.0010  -19.8060 C   0  0  0  0  0  0  0  0  0  0  0  0
   -3.6030    6.0580  -20.8450 N   0  0  0  0  0  0  0  0  0  0  0  0
   -4.8140    6.6660  -20.2330 C   0  0  0  0  0  0  0  0  0  0  0  0
   -4.6570    5.6410  -17.1670 N   0  0  0  0  0  0  0  0  0  0  0  0
   -5.3370    5.5630  -16.0390 C   0  0  0  0  0  0  0  0  0  0  0  0
   -6.6800    5.1680  -16.2690 C   0  0  0  0  0  0  0  0  0  0  0  0
   -7.8160    4.8720  -15.4910 C   0  0  0  0  0  0  0  0  0  0  0  0
   -7.7690    5.0920  -14.0050 C   0  0  0  0  0  0  0  0  0  0  0  0
   -7.0400    5.9570  -13.5240 O   0  0  0  0  0  0  0  0  0  0  0  0
   -8.5510    4.2800  -13.2090 N   0  0  0  0  0  0  0  0  0  0  0  0
   -8.6280    4.3750  -11.8130 C   0  0  0  0  0  0  0  0  0  0  0  0
   -8.8080    3.2680  -11.0940 N   0  0  0  0  0  0  0  0  0  0  0  0
   -8.7430    3.7040   -9.8080 N   0  0  0  0  0  0  0  0  0  0  0  0
   -8.5410    5.0240   -9.7170 C   0  0  0  0  0  0  0  0  0  0  0  0
   -8.4520    5.5200  -10.9910 C   0  0  0  0  0  0  0  0  0  0  0  0
  2  1  1  0
  3  2  2  0
  4  2  1  0
  5  4  2  0
  6  5  1  0
  7  6  1  1
  8  7  1  0
  9  8  1  0
 10  7  1  0
 10  9  1  0
 11  6  1  0
 12 11  2  0
 13  5  1  0
 13 12  1  0
 14 13  2  0
 14  3  1  0
 15 14  1  0
 16 15  2  0
 17 15  1  0
 18 17  1  0
 19 18  2  0
 20 19  1  0
 21 20  1  0
 22 18  1  0
 22 21  2  0
M  END
>  <smiles>  (318) 
O=C(Nc1cc[nH]n1)c1cc(Cl)cc2c1cnn2C1CNC1

>  <inchikey>  (318) 
MCDQWMCUFPWKQC-UHFFFAOYSA-N

>  <alias>  (318) 
Z5197a

$$$$
Z5200a
     RDKit          3D

 24 27  0  0  0  0  0  0  0  0999 V2000
  -10.0010    3.8550  -17.7190 F   0  0  0  0  0  0  0  0  0  0  0  0
   -8.8530    4.1620  -17.0490 C   0  0  0  0  0  0  0  0  0  0  0  0
   -8.8820    4.1840  -15.6740 C   0  0  0  0  0  0  0  0  0  0  0  0
   -7.7350    4.4690  -17.7870 C   0  0  0  0  0  0  0  0  0  0  0  0
   -6.5750    4.8360  -17.1100 C   0  0  0  0  0  0  0  0  0  0  0  0
   -5.3560    5.1720  -17.8620 C   0  0  0  0  0  0  0  0  0  0  0  0
   -3.8010    5.1540  -17.1310 S   0  0  0  0  0  0  0  0  0  0  0  0
   -3.0990    5.5600  -18.6510 C   0  0  0  0  0  0  0  0  0  0  0  0
   -3.9380    5.7140  -19.6300 N   0  0  0  0  0  0  0  0  0  0  0  0
   -5.2190    5.5010  -19.1810 C   0  0  0  0  0  0  0  0  0  0  0  0
   -6.5770    4.8960  -15.7180 C   0  0  0  0  0  0  0  0  0  0  0  0
   -7.7280    4.5730  -14.9980 C   0  0  0  0  0  0  0  0  0  0  0  0
   -7.6740    4.7570  -13.5120 C   0  0  0  0  0  0  0  0  0  0  0  0
   -6.8540    5.5180  -13.0020 O   0  0  0  0  0  0  0  0  0  0  0  0
   -8.5210    3.9940  -12.7770 N   0  0  0  0  0  0  0  0  0  0  0  0
   -8.5920    3.9880  -11.3560 C   0  0  0  0  0  0  0  0  0  0  0  0
   -8.7730    2.7860  -10.6800 C   0  0  0  0  0  0  0  0  0  0  0  0
   -8.8130    2.7590   -9.2870 C   0  0  0  0  0  0  0  0  0  0  0  0
   -9.0960    1.6150   -8.3560 C   0  0  0  0  0  0  0  0  0  0  0  0
   -8.8000    2.1870   -7.0220 N   0  0  0  0  0  0  0  0  0  0  0  0
   -8.7880    3.6630   -7.0970 C   0  0  0  0  0  0  0  0  0  0  0  0
   -8.6500    3.9340   -8.5680 C   0  0  0  0  0  0  0  0  0  0  0  0
   -8.4650    5.1400   -9.2420 C   0  0  0  0  0  0  0  0  0  0  0  0
   -8.4500    5.1690  -10.6280 C   0  0  0  0  0  0  0  0  0  0  0  0
  2  1  1  0
  3  2  2  0
  4  2  1  0
  5  4  2  0
  6  5  1  0
  7  6  1  0
  8  7  1  0
  9  8  2  0
 10  6  2  0
 10  9  1  0
 11  5  1  0
 12 11  2  0
 12  3  1  0
 13 12  1  0
 14 13  2  0
 15 13  1  0
 16 15  1  0
 17 16  2  0
 18 17  1  0
 19 18  1  0
 20 19  1  0
 21 20  1  0
 22 21  1  0
 22 18  2  0
 23 22  1  0
 24 16  1  0
 24 23  2  0
M  END
>  <smiles>  (319) 
O=C(Nc1ccc2c(c1)CNC2)c1cc(F)cc(-c2cncs2)c1

>  <inchikey>  (319) 
GKARIMGBJHZOIR-UHFFFAOYSA-N

>  <alias>  (319) 
Z5200a

$$$$
Z5211a
     RDKit          3D

 26 30  0  0  0  0  0  0  0  0999 V2000
  -10.2910    4.1150  -17.6260 F   0  0  0  0  0  0  0  0  0  0  0  0
   -9.0920    4.3950  -17.0360 C   0  0  0  0  0  0  0  0  0  0  0  0
   -9.0270    4.4220  -15.6510 C   0  0  0  0  0  0  0  0  0  0  0  0
   -8.0150    4.6250  -17.8610 C   0  0  0  0  0  0  0  0  0  0  0  0
   -6.8090    4.9000  -17.2430 C   0  0  0  0  0  0  0  0  0  0  0  0
   -5.5330    5.1180  -17.7380 N   0  0  0  0  0  0  0  0  0  0  0  0
   -5.1640    5.1280  -19.1530 C   0  0  2  0  0  0  0  0  0  0  0  0
   -3.6410    5.1660  -19.4060 C   0  0  0  0  0  0  0  0  0  0  0  0
   -3.9270    6.0820  -20.5380 N   0  0  0  0  0  0  0  0  0  0  0  0
   -5.1590    6.5120  -19.8280 C   0  0  0  0  0  0  0  0  0  0  0  0
   -4.7320    5.3100  -16.6440 C   0  0  0  0  0  0  0  0  0  0  0  0
   -5.3660    5.2430  -15.4950 N   0  0  0  0  0  0  0  0  0  0  0  0
   -6.6820    4.9700  -15.8520 C   0  0  0  0  0  0  0  0  0  0  0  0
   -7.8010    4.7300  -15.0390 C   0  0  0  0  0  0  0  0  0  0  0  0
   -7.7140    4.8810  -13.5430 C   0  0  0  0  0  0  0  0  0  0  0  0
   -6.8990    5.6560  -13.0460 O   0  0  0  0  0  0  0  0  0  0  0  0
   -8.5560    4.1140  -12.7970 N   0  0  0  0  0  0  0  0  0  0  0  0
   -8.6580    4.1170  -11.3690 C   0  0  0  0  0  0  0  0  0  0  0  0
   -8.8930    2.9300  -10.6770 C   0  0  0  0  0  0  0  0  0  0  0  0
   -8.9450    2.9220   -9.2800 C   0  0  0  0  0  0  0  0  0  0  0  0
   -9.2300    1.7960   -8.3280 C   0  0  0  0  0  0  0  0  0  0  0  0
   -8.8470    2.3720   -7.0250 N   0  0  0  0  0  0  0  0  0  0  0  0
   -8.8420    3.8490   -7.0970 C   0  0  0  0  0  0  0  0  0  0  0  0
   -8.7430    4.1020   -8.5740 C   0  0  0  0  0  0  0  0  0  0  0  0
   -8.5300    5.2930   -9.2620 C   0  0  0  0  0  0  0  0  0  0  0  0
   -8.4870    5.3020  -10.6510 C   0  0  0  0  0  0  0  0  0  0  0  0
  2  1  1  0
  3  2  2  0
  4  2  1  0
  5  4  2  0
  6  5  1  0
  7  6  1  1
  8  7  1  0
  9  8  1  0
 10  7  1  0
 10  9  1  0
 11  6  1  0
 12 11  2  0
 13  5  1  0
 13 12  1  0
 14 13  2  0
 14  3  1  0
 15 14  1  0
 16 15  2  0
 17 15  1  0
 18 17  1  0
 19 18  2  0
 20 19  1  0
 21 20  1  0
 22 21  1  0
 23 22  1  0
 24 23  1  0
 24 20  2  0
 25 24  1  0
 26 18  1  0
 26 25  2  0
M  END
>  <smiles>  (320) 
O=C(Nc1ccc2c(c1)CNC2)c1cc(F)cc2c1ncn2C1CNC1

>  <inchikey>  (320) 
HMBUWZGNKDVPNW-UHFFFAOYSA-N

>  <alias>  (320) 
Z5211a

$$$$
Z5227a
     RDKit          3D

 23 26  0  0  0  0  0  0  0  0999 V2000
   -9.6040    3.6650  -18.2060 Br  0  0  0  0  0  0  0  0  0  0  0  0
   -8.1610    4.2050  -17.0870 C   0  0  0  0  0  0  0  0  0  0  0  0
   -6.9430    4.5090  -17.6620 C   0  0  0  0  0  0  0  0  0  0  0  0
   -5.8660    4.8600  -16.8370 C   0  0  0  0  0  0  0  0  0  0  0  0
   -4.6600    5.0510  -17.5310 N   0  0  0  0  0  0  0  0  0  0  0  0
   -6.4560    4.4220  -19.3180 S   0  0  0  0  0  0  0  0  0  0  0  0
   -4.8230    4.8430  -18.8150 C   0  0  0  0  0  0  0  0  0  0  0  0
   -3.8270    4.8710  -19.7170 N   0  0  0  0  0  0  0  0  0  0  0  0
   -8.3460    4.2460  -15.7090 C   0  0  0  0  0  0  0  0  0  0  0  0
   -7.2790    4.6110  -14.8870 C   0  0  0  0  0  0  0  0  0  0  0  0
   -6.0370    4.9130  -15.4470 C   0  0  0  0  0  0  0  0  0  0  0  0
   -7.3570    4.7930  -13.3990 C   0  0  0  0  0  0  0  0  0  0  0  0
   -6.5800    5.5520  -12.8220 O   0  0  0  0  0  0  0  0  0  0  0  0
   -8.2770    4.0430  -12.7420 N   0  0  0  0  0  0  0  0  0  0  0  0
   -8.4790    4.0190  -11.3270 C   0  0  0  0  0  0  0  0  0  0  0  0
   -8.6510    2.7990  -10.6780 C   0  0  0  0  0  0  0  0  0  0  0  0
   -8.7340    2.7500   -9.2830 C   0  0  0  0  0  0  0  0  0  0  0  0
   -9.0150    1.5830   -8.3800 C   0  0  0  0  0  0  0  0  0  0  0  0
   -8.8040    2.1580   -7.0380 N   0  0  0  0  0  0  0  0  0  0  0  0
   -8.7540    3.6230   -7.0730 C   0  0  0  0  0  0  0  0  0  0  0  0
   -8.6330    3.9210   -8.5400 C   0  0  0  0  0  0  0  0  0  0  0  0
   -8.4680    5.1410   -9.1870 C   0  0  0  0  0  0  0  0  0  0  0  0
   -8.4040    5.1930  -10.5740 C   0  0  0  0  0  0  0  0  0  0  0  0
  2  1  1  0
  3  2  2  0
  4  3  1  0
  5  4  1  0
  6  3  1  0
  7  6  1  0
  7  5  2  0
  8  7  1  0
  9  2  1  0
 10  9  2  0
 11  4  2  0
 11 10  1  0
 12 10  1  0
 13 12  2  0
 14 12  1  0
 15 14  1  0
 16 15  2  0
 17 16  1  0
 18 17  1  0
 19 18  1  0
 20 19  1  0
 21 20  1  0
 21 17  2  0
 22 21  1  0
 23 15  1  0
 23 22  2  0
M  END
>  <smiles>  (321) 
Nc1nc2cc(C(=O)Nc3ccc4c(c3)CNC4)cc(Br)c2s1

>  <inchikey>  (321) 
DVJIDKYASZYGLP-UHFFFAOYSA-N

>  <alias>  (321) 
Z5227a

$$$$
Z5229a
     RDKit          3D

 28 32  0  0  0  0  0  0  0  0999 V2000
  -10.2520    3.9660  -17.6510 F   0  0  0  0  0  0  0  0  0  0  0  0
   -9.0580    4.2580  -17.0600 C   0  0  0  0  0  0  0  0  0  0  0  0
   -9.0030    4.3120  -15.6830 C   0  0  0  0  0  0  0  0  0  0  0  0
   -7.9760    4.5070  -17.8710 C   0  0  0  0  0  0  0  0  0  0  0  0
   -6.7620    4.8370  -17.2720 C   0  0  0  0  0  0  0  0  0  0  0  0
   -5.5410    5.0040  -18.1050 C   0  0  0  0  0  0  0  0  0  0  0  0
   -4.1580    5.2070  -17.6740 C   0  0  0  0  0  0  0  0  0  0  0  0
   -3.5130    5.2860  -16.4380 C   0  0  0  0  0  0  0  0  0  0  0  0
   -2.1450    5.5120  -16.3840 C   0  0  0  0  0  0  0  0  0  0  0  0
   -1.4030    5.6550  -17.5490 C   0  0  0  0  0  0  0  0  0  0  0  0
   -2.0120    5.5590  -18.7940 C   0  0  0  0  0  0  0  0  0  0  0  0
   -3.3820    5.3300  -18.8450 C   0  0  0  0  0  0  0  0  0  0  0  0
   -4.2260    5.1880  -19.9260 N   0  0  0  0  0  0  0  0  0  0  0  0
   -5.5100    4.9980  -19.4760 C   0  0  0  0  0  0  0  0  0  0  0  0
   -6.6810    4.9240  -15.8790 C   0  0  0  0  0  0  0  0  0  0  0  0
   -7.7950    4.6560  -15.0840 C   0  0  0  0  0  0  0  0  0  0  0  0
   -7.6520    4.7730  -13.5960 C   0  0  0  0  0  0  0  0  0  0  0  0
   -6.7780    5.4850  -13.1010 O   0  0  0  0  0  0  0  0  0  0  0  0
   -8.5290    4.0530  -12.8460 N   0  0  0  0  0  0  0  0  0  0  0  0
   -8.5950    4.0520  -11.4190 C   0  0  0  0  0  0  0  0  0  0  0  0
   -8.8670    2.8750  -10.7210 C   0  0  0  0  0  0  0  0  0  0  0  0
   -8.8970    2.8690   -9.3200 C   0  0  0  0  0  0  0  0  0  0  0  0
   -9.1220    1.7350   -8.3610 C   0  0  0  0  0  0  0  0  0  0  0  0
   -8.7480    2.3240   -7.0580 N   0  0  0  0  0  0  0  0  0  0  0  0
   -8.7330    3.7980   -7.1380 C   0  0  0  0  0  0  0  0  0  0  0  0
   -8.6680    4.0470   -8.6180 C   0  0  0  0  0  0  0  0  0  0  0  0
   -8.4100    5.2250   -9.3140 C   0  0  0  0  0  0  0  0  0  0  0  0
   -8.3650    5.2280  -10.7050 C   0  0  0  0  0  0  0  0  0  0  0  0
  2  1  1  0
  3  2  2  0
  4  2  1  0
  5  4  2  0
  6  5  1  0
  7  6  1  0
  8  7  2  0
  9  8  1  0
 10  9  2  0
 11 10  1  0
 12  7  1  0
 12 11  2  0
 13 12  1  0
 14  6  2  0
 14 13  1  0
 15  5  1  0
 16 15  2  0
 16  3  1  0
 17 16  1  0
 18 17  2  0
 19 17  1  0
 20 19  1  0
 21 20  2  0
 22 21  1  0
 23 22  1  0
 24 23  1  0
 25 24  1  0
 26 25  1  0
 26 22  2  0
 27 26  1  0
 28 20  1  0
 28 27  2  0
M  END
>  <smiles>  (322) 
O=C(Nc1ccc2c(c1)CNC2)c1cc(F)cc(-c2c[nH]c3ccccc23)c1

>  <inchikey>  (322) 
PKCPKRVGSZBBTJ-UHFFFAOYSA-N

>  <alias>  (322) 
Z5229a

$$$$
Z5230a
     RDKit          3D

 28 32  0  0  0  0  0  0  0  0999 V2000
   -9.6750    3.6430  -17.5830 F   0  0  0  0  0  0  0  0  0  0  0  0
   -8.5930    4.1000  -16.9130 C   0  0  0  0  0  0  0  0  0  0  0  0
   -8.6150    4.1500  -15.5390 C   0  0  0  0  0  0  0  0  0  0  0  0
   -7.4890    4.4920  -17.6500 C   0  0  0  0  0  0  0  0  0  0  0  0
   -6.3450    4.9510  -16.9740 C   0  0  0  0  0  0  0  0  0  0  0  0
   -5.3680    5.2810  -17.9780 C   0  0  0  0  0  0  0  0  0  0  0  0
   -4.0040    5.8540  -17.7120 C   0  0  1  0  0  0  0  0  0  0  0  0
   -2.9470    5.3950  -18.7320 C   0  0  0  0  0  0  0  0  0  0  0  0
   -1.6010    6.0230  -18.4050 C   0  0  0  0  0  0  0  0  0  0  0  0
   -1.6770    6.8580  -17.2380 O   0  0  0  0  0  0  0  0  0  0  0  0
   -2.6180    7.9210  -17.4370 C   0  0  0  0  0  0  0  0  0  0  0  0
   -4.0280    7.3890  -17.6150 C   0  0  0  0  0  0  0  0  0  0  0  0
   -5.9500    5.0110  -19.1820 C   0  0  0  0  0  0  0  0  0  0  0  0
   -7.2240    4.5330  -18.9980 N   0  0  0  0  0  0  0  0  0  0  0  0
   -6.3510    4.9970  -15.5780 C   0  0  0  0  0  0  0  0  0  0  0  0
   -7.4830    4.6050  -14.8620 C   0  0  0  0  0  0  0  0  0  0  0  0
   -7.3960    4.7200  -13.3710 C   0  0  0  0  0  0  0  0  0  0  0  0
   -6.5410    5.4300  -12.8440 O   0  0  0  0  0  0  0  0  0  0  0  0
   -8.2990    4.0010  -12.6620 N   0  0  0  0  0  0  0  0  0  0  0  0
   -8.4030    3.9560  -11.2420 C   0  0  0  0  0  0  0  0  0  0  0  0
   -8.6740    2.7520  -10.5980 C   0  0  0  0  0  0  0  0  0  0  0  0
   -8.7810    2.7060   -9.2080 C   0  0  0  0  0  0  0  0  0  0  0  0
   -9.1190    1.5540   -8.3060 C   0  0  0  0  0  0  0  0  0  0  0  0
   -8.7740    2.1000   -6.9890 N   0  0  0  0  0  0  0  0  0  0  0  0
   -8.7420    3.5660   -6.9960 C   0  0  0  0  0  0  0  0  0  0  0  0
   -8.6060    3.8640   -8.4610 C   0  0  0  0  0  0  0  0  0  0  0  0
   -8.3420    5.0680   -9.1050 C   0  0  0  0  0  0  0  0  0  0  0  0
   -8.2400    5.1160  -10.4870 C   0  0  0  0  0  0  0  0  0  0  0  0
  2  1  1  0
  3  2  2  0
  4  2  1  0
  5  4  2  0
  6  5  1  0
  7  6  1  6
  8  7  1  0
  9  8  1  0
 10  9  1  0
 11 10  1  0
 12 11  1  0
 12  7  1  0
 13  6  2  0
 14 13  1  0
 14  4  1  0
 15  5  1  0
 16 15  2  0
 16  3  1  0
 17 16  1  0
 18 17  2  0
 19 17  1  0
 20 19  1  0
 21 20  2  0
 22 21  1  0
 23 22  1  0
 24 23  1  0
 25 24  1  0
 26 25  1  0
 26 22  2  0
 27 26  1  0
 28 20  1  0
 28 27  2  0
M  END
>  <smiles>  (323) 
O=C(Nc1ccc2c(c1)CNC2)c1cc(F)c2[nH]cc(C3CCOCC3)c2c1

>  <inchikey>  (323) 
DAOHEWHNXMYEOP-UHFFFAOYSA-N

>  <alias>  (323) 
Z5230a

$$$$
Z5236a
     RDKit          3D

 29 33  0  0  0  0  0  0  0  0999 V2000
   -9.4380    3.7130  -18.0800 Cl  0  0  0  0  0  0  0  0  0  0  0  0
   -8.1880    4.2720  -17.0060 C   0  0  0  0  0  0  0  0  0  0  0  0
   -6.9730    4.7110  -17.5330 C   0  0  0  0  0  0  0  0  0  0  0  0
   -5.9410    5.1510  -16.6790 C   0  0  0  0  0  0  0  0  0  0  0  0
   -4.8280    5.4920  -17.5230 C   0  0  0  0  0  0  0  0  0  0  0  0
   -6.5060    4.7840  -18.8340 N   0  0  0  0  0  0  0  0  0  0  0  0
   -5.1980    5.2480  -18.8210 C   0  0  0  0  0  0  0  0  0  0  0  0
   -4.4050    5.4430  -20.0490 C   0  0  0  0  0  0  0  0  0  0  0  0
   -5.0320    5.8690  -21.2230 C   0  0  0  0  0  0  0  0  0  0  0  0
   -4.4010    6.1200  -22.3750 N   0  0  0  0  0  0  0  0  0  0  0  0
   -3.0840    5.9400  -22.3900 C   0  0  0  0  0  0  0  0  0  0  0  0
   -2.3620    5.5120  -21.2960 C   0  0  0  0  0  0  0  0  0  0  0  0
   -3.0100    5.2490  -20.0930 C   0  0  0  0  0  0  0  0  0  0  0  0
   -2.1980    4.7940  -18.9060 C   0  0  0  0  0  0  0  0  0  0  0  0
   -8.3990    4.2640  -15.6360 C   0  0  0  0  0  0  0  0  0  0  0  0
   -7.3840    4.6920  -14.7740 C   0  0  0  0  0  0  0  0  0  0  0  0
   -6.1700    5.1320  -15.2970 C   0  0  0  0  0  0  0  0  0  0  0  0
   -7.4300    4.7840  -13.2770 C   0  0  0  0  0  0  0  0  0  0  0  0
   -6.6770    5.5480  -12.6740 O   0  0  0  0  0  0  0  0  0  0  0  0
   -8.3250    3.9830  -12.6380 N   0  0  0  0  0  0  0  0  0  0  0  0
   -8.5190    3.9450  -11.2280 C   0  0  0  0  0  0  0  0  0  0  0  0
   -8.7150    2.7390  -10.5570 C   0  0  0  0  0  0  0  0  0  0  0  0
   -8.8300    2.7160   -9.1660 C   0  0  0  0  0  0  0  0  0  0  0  0
   -9.1270    1.5710   -8.2410 C   0  0  0  0  0  0  0  0  0  0  0  0
   -8.8110    2.1520   -6.9260 N   0  0  0  0  0  0  0  0  0  0  0  0
   -8.8640    3.6230   -6.9720 C   0  0  0  0  0  0  0  0  0  0  0  0
   -8.7170    3.8980   -8.4410 C   0  0  0  0  0  0  0  0  0  0  0  0
   -8.5360    5.1050   -9.1110 C   0  0  0  0  0  0  0  0  0  0  0  0
   -8.4510    5.1330  -10.4960 C   0  0  0  0  0  0  0  0  0  0  0  0
  2  1  1  0
  3  2  2  0
  4  3  1  0
  5  4  1  0
  6  3  1  0
  7  6  1  0
  7  5  2  0
  8  7  1  0
  9  8  2  0
 10  9  1  0
 11 10  2  0
 12 11  1  0
 13  8  1  0
 13 12  2  0
 14 13  1  0
 15  2  1  0
 16 15  2  0
 17  4  2  0
 17 16  1  0
 18 16  1  0
 19 18  2  0
 20 18  1  0
 21 20  1  0
 22 21  2  0
 23 22  1  0
 24 23  1  0
 25 24  1  0
 26 25  1  0
 27 26  1  0
 27 23  2  0
 28 27  1  0
 29 21  1  0
 29 28  2  0
M  END
>  <smiles>  (324) 
Cc1ccncc1-c1cc2cc(C(=O)Nc3ccc4c(c3)CNC4)cc(Cl)c2[nH]1

>  <inchikey>  (324) 
KVLYUIICMZCYSE-UHFFFAOYSA-N

>  <alias>  (324) 
Z5236a

$$$$
Z5243a
     RDKit          3D

 28 32  0  0  0  0  0  0  0  0999 V2000
   -9.7400    3.7570  -17.9910 Cl  0  0  0  0  0  0  0  0  0  0  0  0
   -8.4150    4.3010  -17.0080 C   0  0  0  0  0  0  0  0  0  0  0  0
   -8.5240    4.2770  -15.6230 C   0  0  0  0  0  0  0  0  0  0  0  0
   -7.2430    4.7440  -17.6240 C   0  0  0  0  0  0  0  0  0  0  0  0
   -6.1530    5.1520  -16.8380 C   0  0  0  0  0  0  0  0  0  0  0  0
   -5.1240    5.4830  -17.8190 C   0  0  0  0  0  0  0  0  0  0  0  0
   -3.8020    5.8900  -17.5850 N   0  0  0  0  0  0  0  0  0  0  0  0
   -3.2250    5.9820  -16.2340 C   0  0  0  0  0  0  0  0  0  0  0  0
   -1.7130    5.8500  -16.2760 C   0  0  0  0  0  0  0  0  0  0  0  0
   -1.1170    6.7460  -17.2240 O   0  0  0  0  0  0  0  0  0  0  0  0
   -1.6450    6.5230  -18.5320 C   0  0  0  0  0  0  0  0  0  0  0  0
   -3.1360    6.7560  -18.5740 C   0  0  0  0  0  0  0  0  0  0  0  0
   -5.5670    5.3160  -19.0390 N   0  0  0  0  0  0  0  0  0  0  0  0
   -6.8640    4.8620  -18.9200 N   0  0  0  0  0  0  0  0  0  0  0  0
   -6.2650    5.1220  -15.4450 C   0  0  0  0  0  0  0  0  0  0  0  0
   -7.4480    4.6930  -14.8350 C   0  0  0  0  0  0  0  0  0  0  0  0
   -7.4520    4.7760  -13.3340 C   0  0  0  0  0  0  0  0  0  0  0  0
   -6.6620    5.5010  -12.7400 O   0  0  0  0  0  0  0  0  0  0  0  0
   -8.3550    4.0070  -12.6830 N   0  0  0  0  0  0  0  0  0  0  0  0
   -8.5190    3.9690  -11.2660 C   0  0  0  0  0  0  0  0  0  0  0  0
   -8.6930    2.7470  -10.6220 C   0  0  0  0  0  0  0  0  0  0  0  0
   -8.7760    2.6910   -9.2300 C   0  0  0  0  0  0  0  0  0  0  0  0
   -9.0030    1.5100   -8.3340 C   0  0  0  0  0  0  0  0  0  0  0  0
   -8.7530    2.0620   -6.9830 N   0  0  0  0  0  0  0  0  0  0  0  0
   -8.7460    3.5390   -7.0160 C   0  0  0  0  0  0  0  0  0  0  0  0
   -8.6680    3.8560   -8.4810 C   0  0  0  0  0  0  0  0  0  0  0  0
   -8.4960    5.0800   -9.1240 C   0  0  0  0  0  0  0  0  0  0  0  0
   -8.4280    5.1380  -10.5060 C   0  0  0  0  0  0  0  0  0  0  0  0
  2  1  1  0
  3  2  2  0
  4  2  1  0
  5  4  2  0
  6  5  1  0
  7  6  1  0
  8  7  1  0
  9  8  1  0
 10  9  1  0
 11 10  1  0
 12 11  1  0
 12  7  1  0
 13  6  2  0
 14 13  1  0
 14  4  1  0
 15  5  1  0
 16 15  2  0
 16  3  1  0
 17 16  1  0
 18 17  2  0
 19 17  1  0
 20 19  1  0
 21 20  2  0
 22 21  1  0
 23 22  1  0
 24 23  1  0
 25 24  1  0
 26 25  1  0
 26 22  2  0
 27 26  1  0
 28 20  1  0
 28 27  2  0
M  END
>  <smiles>  (325) 
O=C(Nc1ccc2c(c1)CNC2)c1cc(Cl)c2[nH]nc(N3CCOCC3)c2c1

>  <inchikey>  (325) 
SMEHQNCRAPEJJK-UHFFFAOYSA-N

>  <alias>  (325) 
Z5243a

$$$$
Z5246a
     RDKit          3D

 27 31  0  0  0  0  0  0  0  0999 V2000
   -9.6550    3.7850  -18.1340 Cl  0  0  0  0  0  0  0  0  0  0  0  0
   -8.3300    4.2770  -17.1200 C   0  0  0  0  0  0  0  0  0  0  0  0
   -8.4710    4.2390  -15.7410 C   0  0  0  0  0  0  0  0  0  0  0  0
   -7.1340    4.6910  -17.7120 C   0  0  0  0  0  0  0  0  0  0  0  0
   -6.0790    5.0650  -16.8760 C   0  0  0  0  0  0  0  0  0  0  0  0
   -5.0380    5.4740  -17.7100 N   0  0  0  0  0  0  0  0  0  0  0  0
   -5.5110    5.3620  -18.9430 C   0  0  0  0  0  0  0  0  0  0  0  0
   -4.8220    5.7140  -20.0600 N   0  0  0  0  0  0  0  0  0  0  0  0
   -3.4510    6.2240  -20.1280 C   0  0  2  0  0  0  0  0  0  0  0  0
   -2.8630    6.4320  -21.5400 C   0  0  0  0  0  0  0  0  0  0  0  0
   -1.9860    5.2590  -21.3220 N   0  0  0  0  0  0  0  0  0  0  0  0
   -2.3100    5.2150  -19.8790 C   0  0  0  0  0  0  0  0  0  0  0  0
   -6.7830    4.8850  -19.0340 N   0  0  0  0  0  0  0  0  0  0  0  0
   -6.2080    5.0450  -15.4840 C   0  0  0  0  0  0  0  0  0  0  0  0
   -7.4150    4.6370  -14.9160 C   0  0  0  0  0  0  0  0  0  0  0  0
   -7.4440    4.7620  -13.4200 C   0  0  0  0  0  0  0  0  0  0  0  0
   -6.6350    5.4770  -12.8360 O   0  0  0  0  0  0  0  0  0  0  0  0
   -8.3720    4.0330  -12.7500 N   0  0  0  0  0  0  0  0  0  0  0  0
   -8.5340    4.0230  -11.3320 C   0  0  0  0  0  0  0  0  0  0  0  0
   -8.7260    2.8250  -10.6460 C   0  0  0  0  0  0  0  0  0  0  0  0
   -8.8300    2.8160   -9.2530 C   0  0  0  0  0  0  0  0  0  0  0  0
   -9.1250    1.6830   -8.3120 C   0  0  0  0  0  0  0  0  0  0  0  0
   -8.8020    2.2760   -6.9910 N   0  0  0  0  0  0  0  0  0  0  0  0
   -8.8280    3.7440   -7.0680 C   0  0  0  0  0  0  0  0  0  0  0  0
   -8.7040    4.0040   -8.5420 C   0  0  0  0  0  0  0  0  0  0  0  0
   -8.5070    5.2000   -9.2240 C   0  0  0  0  0  0  0  0  0  0  0  0
   -8.4380    5.2150  -10.6110 C   0  0  0  0  0  0  0  0  0  0  0  0
  2  1  1  0
  3  2  2  0
  4  2  1  0
  5  4  2  0
  6  5  1  0
  7  6  2  0
  8  7  1  0
  9  8  1  6
 10  9  1  0
 11 10  1  0
 12 11  1  0
 12  9  1  0
 13  7  1  0
 13  4  1  0
 14  5  1  0
 15 14  2  0
 15  3  1  0
 16 15  1  0
 17 16  2  0
 18 16  1  0
 19 18  1  0
 20 19  2  0
 21 20  1  0
 22 21  1  0
 23 22  1  0
 24 23  1  0
 25 24  1  0
 25 21  2  0
 26 25  1  0
 27 19  1  0
 27 26  2  0
M  END
>  <smiles>  (326) 
O=C(Nc1ccc2c(c1)CNC2)c1cc(Cl)c2[nH]c(NC3CNC3)nc2c1

>  <inchikey>  (326) 
MJDZUQYOVJBHHN-UHFFFAOYSA-N

>  <alias>  (326) 
Z5246a

$$$$
Z5302a
     RDKit          3D

 27 31  0  0  0  0  0  0  0  0999 V2000
  -10.3950    4.0100  -18.0010 Cl  0  0  0  0  0  0  0  0  0  0  0  0
   -8.8630    4.2370  -17.1910 C   0  0  0  0  0  0  0  0  0  0  0  0
   -8.8200    4.2370  -15.8000 C   0  0  0  0  0  0  0  0  0  0  0  0
   -7.7390    4.4680  -17.9610 C   0  0  0  0  0  0  0  0  0  0  0  0
   -6.5530    4.7300  -17.2940 C   0  0  0  0  0  0  0  0  0  0  0  0
   -5.3010    4.9850  -17.7760 N   0  0  0  0  0  0  0  0  0  0  0  0
   -4.8810    5.1110  -19.1760 C   0  0  2  0  0  0  0  0  0  0  0  0
   -3.4280    4.5460  -19.4440 C   0  0  0  0  0  0  0  0  0  0  0  0
   -2.8240    5.3850  -20.4650 N   0  0  0  0  0  0  0  0  0  0  0  0
   -3.8020    6.4490  -20.8220 C   0  0  0  0  0  0  0  0  0  0  0  0
   -4.7620    6.5620  -19.6400 C   0  0  0  0  0  0  0  0  0  0  0  0
   -4.4050    5.1820  -16.7600 N   0  0  0  0  0  0  0  0  0  0  0  0
   -5.0890    5.0640  -15.6380 C   0  0  0  0  0  0  0  0  0  0  0  0
   -6.4550    4.7680  -15.8920 C   0  0  0  0  0  0  0  0  0  0  0  0
   -7.6170    4.5150  -15.1320 C   0  0  0  0  0  0  0  0  0  0  0  0
   -7.5660    4.6740  -13.6340 C   0  0  0  0  0  0  0  0  0  0  0  0
   -6.7180    5.4030  -13.1200 O   0  0  0  0  0  0  0  0  0  0  0  0
   -8.4700    3.9750  -12.8890 N   0  0  0  0  0  0  0  0  0  0  0  0
   -8.5600    3.9860  -11.4590 C   0  0  0  0  0  0  0  0  0  0  0  0
   -8.7550    2.7980  -10.7540 C   0  0  0  0  0  0  0  0  0  0  0  0
   -8.8160    2.8040   -9.3600 C   0  0  0  0  0  0  0  0  0  0  0  0
   -9.0750    1.6760   -8.4030 C   0  0  0  0  0  0  0  0  0  0  0  0
   -8.7700    2.2770   -7.1030 N   0  0  0  0  0  0  0  0  0  0  0  0
   -8.7520    3.7550   -7.1870 C   0  0  0  0  0  0  0  0  0  0  0  0
   -8.6640    3.9990   -8.6660 C   0  0  0  0  0  0  0  0  0  0  0  0
   -8.4670    5.1860   -9.3650 C   0  0  0  0  0  0  0  0  0  0  0  0
   -8.4240    5.1820  -10.7540 C   0  0  0  0  0  0  0  0  0  0  0  0
  2  1  1  0
  3  2  2  0
  4  2  1  0
  5  4  2  0
  6  5  1  0
  7  6  1  1
  8  7  1  0
  9  8  1  0
 10  9  1  0
 11  7  1  0
 11 10  1  0
 12  6  1  0
 13 12  2  0
 14  5  1  0
 14 13  1  0
 15 14  2  0
 15  3  1  0
 16 15  1  0
 17 16  2  0
 18 16  1  0
 19 18  1  0
 20 19  2  0
 21 20  1  0
 22 21  1  0
 23 22  1  0
 24 23  1  0
 25 24  1  0
 25 21  2  0
 26 25  1  0
 27 19  1  0
 27 26  2  0
M  END
>  <smiles>  (327) 
O=C(Nc1ccc2c(c1)CNC2)c1cc(Cl)cc2c1cnn2[C@H]1CCNC1

>  <inchikey>  (327) 
XPBPPEVYTWEUOZ-INIZCTEOSA-N

>  <alias>  (327) 
Z5302a

$$$$
Z5339a
     RDKit          3D

 29 33  0  0  0  0  0  0  0  0999 V2000
  -10.3470    4.0100  -18.1210 Cl  0  0  0  0  0  0  0  0  0  0  0  0
   -8.8830    4.4290  -17.2640 C   0  0  0  0  0  0  0  0  0  0  0  0
   -8.9030    4.4840  -15.8760 C   0  0  0  0  0  0  0  0  0  0  0  0
   -7.7510    4.7250  -17.9970 C   0  0  0  0  0  0  0  0  0  0  0  0
   -6.6080    5.0760  -17.2980 C   0  0  0  0  0  0  0  0  0  0  0  0
   -5.3470    5.3620  -17.7420 N   0  0  0  0  0  0  0  0  0  0  0  0
   -4.8820    5.4900  -19.1260 C   0  0  2  0  0  0  0  0  0  0  0  0
   -3.4730    4.9310  -19.3040 C   0  0  0  0  0  0  0  0  0  0  0  0
   -3.0380    5.1090  -20.7470 C   0  0  0  0  0  0  0  0  0  0  0  0
   -3.1480    6.4860  -21.1720 O   0  0  0  0  0  0  0  0  0  0  0  0
   -4.4970    6.9780  -21.0680 C   0  0  0  0  0  0  0  0  0  0  0  0
   -4.9970    6.9210  -19.6390 C   0  0  0  0  0  0  0  0  0  0  0  0
   -4.4900    5.5870  -16.7000 N   0  0  0  0  0  0  0  0  0  0  0  0
   -5.2100    5.4650  -15.5980 C   0  0  0  0  0  0  0  0  0  0  0  0
   -6.5630    5.1440  -15.8940 C   0  0  0  0  0  0  0  0  0  0  0  0
   -7.7450    4.8600  -15.1720 C   0  0  0  0  0  0  0  0  0  0  0  0
   -7.7570    5.0140  -13.6750 C   0  0  0  0  0  0  0  0  0  0  0  0
   -6.9700    5.7850  -13.1220 O   0  0  0  0  0  0  0  0  0  0  0  0
   -8.5860    4.1950  -12.9790 N   0  0  0  0  0  0  0  0  0  0  0  0
   -8.6360    4.1020  -11.5570 C   0  0  0  0  0  0  0  0  0  0  0  0
   -8.7860    2.8520  -10.9830 C   0  0  0  0  0  0  0  0  0  0  0  0
   -8.8730    2.7190   -9.6040 C   0  0  0  0  0  0  0  0  0  0  0  0
   -8.7730    3.8230   -8.7700 C   0  0  0  0  0  0  0  0  0  0  0  0
   -8.6020    5.0720   -9.3520 C   0  0  0  0  0  0  0  0  0  0  0  0
   -8.5380    5.2160  -10.7290 C   0  0  0  0  0  0  0  0  0  0  0  0
   -8.9170    3.6730   -7.2650 C   0  0  1  0  0  0  0  0  0  0  0  0
   -8.6240    2.2870   -6.6310 C   0  0  0  0  0  0  0  0  0  0  0  0
   -7.8190    2.9590   -5.5680 N   0  0  0  0  0  0  0  0  0  0  0  0
   -7.7570    4.2010   -6.3830 C   0  0  0  0  0  0  0  0  0  0  0  0
  2  1  1  0
  3  2  2  0
  4  2  1  0
  5  4  2  0
  6  5  1  0
  7  6  1  1
  8  7  1  0
  9  8  1  0
 10  9  1  0
 11 10  1  0
 12 11  1  0
 12  7  1  0
 13  6  1  0
 14 13  2  0
 15  5  1  0
 15 14  1  0
 16 15  2  0
 16  3  1  0
 17 16  1  0
 18 17  2  0
 19 17  1  0
 20 19  1  0
 21 20  2  0
 22 21  1  0
 23 22  2  0
 24 23  1  0
 25 20  1  0
 25 24  2  0
 26 23  1  6
 27 26  1  0
 28 27  1  0
 29 28  1  0
 29 26  1  0
M  END
>  <smiles>  (328) 
O=C(Nc1ccc(C2CNC2)cc1)c1cc(Cl)cc2c1cnn2C1CCOCC1

>  <inchikey>  (328) 
LMTPHMAKYXYUCQ-UHFFFAOYSA-N

>  <alias>  (328) 
Z5339a

$$$$
Z5348a
     RDKit          3D

 26 29  0  0  0  0  0  0  0  0999 V2000
  -10.7470    4.1450  -18.1960 Cl  0  0  0  0  0  0  0  0  0  0  0  0
   -9.2020    4.4660  -17.4480 C   0  0  0  0  0  0  0  0  0  0  0  0
   -9.1230    4.5790  -16.0620 C   0  0  0  0  0  0  0  0  0  0  0  0
   -8.1060    4.6660  -18.2660 C   0  0  0  0  0  0  0  0  0  0  0  0
   -6.9170    5.0390  -17.6620 C   0  0  0  0  0  0  0  0  0  0  0  0
   -5.7050    5.3560  -18.2070 N   0  0  0  0  0  0  0  0  0  0  0  0
   -5.3220    5.3880  -19.6210 C   0  0  1  0  0  0  0  0  0  0  0  0
   -5.1330    6.8000  -20.2130 C   0  0  0  0  0  0  0  0  0  0  0  0
   -3.9270    6.2900  -20.9090 N   0  0  0  0  0  0  0  0  0  0  0  0
   -3.8340    5.1480  -19.9680 C   0  0  0  0  0  0  0  0  0  0  0  0
   -4.7990    5.7000  -17.2400 N   0  0  0  0  0  0  0  0  0  0  0  0
   -5.4360    5.6080  -16.0900 C   0  0  0  0  0  0  0  0  0  0  0  0
   -6.7810    5.1940  -16.2740 C   0  0  0  0  0  0  0  0  0  0  0  0
   -7.9070    4.9570  -15.4610 C   0  0  0  0  0  0  0  0  0  0  0  0
   -7.7830    5.2500  -13.9890 C   0  0  0  0  0  0  0  0  0  0  0  0
   -6.9540    6.0650  -13.5860 O   0  0  0  0  0  0  0  0  0  0  0  0
   -8.6060    4.5760  -13.1500 N   0  0  0  0  0  0  0  0  0  0  0  0
   -8.6620    4.7350  -11.7330 C   0  0  0  0  0  0  0  0  0  0  0  0
   -8.4260    5.9650  -11.1220 C   0  0  0  0  0  0  0  0  0  0  0  0
   -8.4980    6.0750   -9.7400 C   0  0  0  0  0  0  0  0  0  0  0  0
   -8.8220    4.9680   -8.9700 C   0  0  0  0  0  0  0  0  0  0  0  0
   -8.9800    3.6290  -10.9520 C   0  0  0  0  0  0  0  0  0  0  0  0
   -9.0790    3.7370   -9.5680 C   0  0  0  0  0  0  0  0  0  0  0  0
   -9.4940    2.5440   -8.7440 C   0  0  0  0  0  0  0  0  0  0  0  0
   -8.3460    1.9260   -8.0820 N   0  0  0  0  0  0  0  0  0  0  0  0
   -8.4510    2.0130   -6.6250 C   0  0  0  0  0  0  0  0  0  0  0  0
  2  1  1  0
  3  2  2  0
  4  2  1  0
  5  4  2  0
  6  5  1  0
  7  6  1  1
  8  7  1  0
  9  8  1  0
 10  7  1  0
 10  9  1  0
 11  6  1  0
 12 11  2  0
 13  5  1  0
 13 12  1  0
 14 13  2  0
 14  3  1  0
 15 14  1  0
 16 15  2  0
 17 15  1  0
 18 17  1  0
 19 18  2  0
 20 19  1  0
 21 20  2  0
 22 18  1  0
 23 22  2  0
 23 21  1  0
 24 23  1  0
 25 24  1  0
 26 25  1  0
M  END
>  <smiles>  (329) 
CNCc1cccc(NC(=O)c2cc(Cl)cc3c2cnn3C2CNC2)c1

>  <inchikey>  (329) 
NSSWESUKHRMODM-UHFFFAOYSA-N

>  <alias>  (329) 
Z5348a

$$$$
