A71EV2A-x3193_A_201_1_A71EV2A-x0911+A+147+1__LIG
     RDKit          3D

 20 21  0  0  0  0  0  0  0  0999 V2000
   10.5820   11.1230   23.1700 Br  0  0  0  0  0  0  0  0  0  0  0  0
    9.0730   10.6640   24.2210 C   0  0  0  0  0  0  0  0  0  0  0  0
    8.7260    9.3280   24.4010 C   0  0  0  0  0  0  0  0  0  0  0  0
    9.5690    8.0880   23.5240 Cl  0  0  0  0  0  0  0  0  0  0  0  0
    7.8000    8.9160   25.2470 N   0  0  0  0  0  0  0  0  0  0  0  0
    7.1810    9.8590   25.9710 C   0  0  0  0  0  0  0  0  0  0  0  0
    7.4440   11.2090   25.8600 C   0  0  0  0  0  0  0  0  0  0  0  0
    8.4040   11.6490   24.9540 C   0  0  0  0  0  0  0  0  0  0  0  0
    8.7000   13.1280   24.8370 C   0  0  0  0  0  0  0  0  0  0  0  0
    8.5410   13.6520   23.4210 C   0  0  0  0  0  0  0  0  0  0  0  0
    7.7190   13.1710   22.6570 O   0  0  0  0  0  0  0  0  0  0  0  0
    9.3660   14.6550   23.0460 N   0  0  0  0  0  0  0  0  0  0  0  0
   10.4070   15.2710   23.8830 C   0  0  0  0  0  0  0  0  0  0  0  0
   11.7790   15.1720   23.2140 C   0  0  0  0  0  0  0  0  0  0  0  0
   11.7340   15.6870   21.7720 C   0  0  0  0  0  0  0  0  0  0  0  0
    9.3040   15.2040   21.6870 C   0  0  0  0  0  0  0  0  0  0  0  0
   10.6350   14.9830   20.9620 C   0  0  1  0  0  0  0  0  0  0  0  0
   10.5470   15.5140   19.5400 C   0  0  0  0  0  0  0  0  0  0  0  0
   10.1700   16.6670   19.3140 O   0  0  0  0  0  0  0  0  0  0  0  0
   10.8610   14.6580   18.5800 N   0  0  0  0  0  0  0  0  0  0  0  0
 20 18  1  0
 19 18  2  0
 17 18  1  6
 17 15  1  0
 15 14  1  0
 14 13  1  0
 13 12  1  0
 12 10  1  0
 11 10  2  0
 10  9  1  0
  9  8  1  0
  8  7  2  0
  7  6  1  0
  6  5  2  0
  5  3  1  0
  4  3  1  0
  3  2  2  0
  8  2  1  0
  2  1  1  0
 16 12  1  0
 17 16  1  0
M  END
$$$$
