A71EV2A-x4202_A_201_1_A71EV2A-x0911+A+147+1__LIG
     RDKit          3D

 21 23  0  0  0  0  0  0  0  0999 V2000
    9.5000   10.4100   23.6190 Br  0  0  0  0  0  0  0  0  0  0  0  0
    7.9540   10.8220   24.6450 C   0  0  0  0  0  0  0  0  0  0  0  0
    7.1490    9.7820   25.0800 C   0  0  0  0  0  0  0  0  0  0  0  0
    6.0330   10.0720   25.8570 C   0  0  0  0  0  0  0  0  0  0  0  0
    5.7320   11.3780   26.1850 C   0  0  0  0  0  0  0  0  0  0  0  0
    7.6690   12.1370   24.9720 C   0  0  0  0  0  0  0  0  0  0  0  0
    6.5400   12.4110   25.7310 C   0  0  0  0  0  0  0  0  0  0  0  0
    6.3740   13.8920   25.9350 C   0  0  0  0  0  0  0  0  0  0  0  0
    7.7700   14.4350   25.6200 C   0  0  0  0  0  0  0  0  0  0  0  0
    8.4660   13.3830   24.6910 C   0  0  2  0  0  0  0  0  0  0  0  0
    8.4390   13.7820   23.2160 C   0  0  0  0  0  0  0  0  0  0  0  0
    7.6050   13.3290   22.4510 O   0  0  0  0  0  0  0  0  0  0  0  0
    9.3260   14.7100   22.8030 N   0  0  0  0  0  0  0  0  0  0  0  0
   10.3450   15.3370   23.6700 C   0  0  0  0  0  0  0  0  0  0  0  0
   11.7410   15.2020   23.1070 C   0  0  0  0  0  0  0  0  0  0  0  0
   11.7900   15.7370   21.6750 C   0  0  0  0  0  0  0  0  0  0  0  0
    9.3240   15.1960   21.4210 C   0  0  0  0  0  0  0  0  0  0  0  0
   10.7250   15.0270   20.8210 C   0  0  1  0  0  0  0  0  0  0  0  0
   10.7220   15.5460   19.3950 C   0  0  0  0  0  0  0  0  0  0  0  0
   10.3960   16.7070   19.1390 O   0  0  0  0  0  0  0  0  0  0  0  0
   11.0310   14.6660   18.4530 N   0  0  0  0  0  0  0  0  0  0  0  0
 21 19  1  0
 20 19  2  0
 18 19  1  6
 18 16  1  0
 16 15  1  0
 15 14  1  0
 14 13  1  0
 13 11  1  0
 12 11  2  0
 10 11  1  6
 10  9  1  0
  9  8  1  0
  8  7  1  0
  7  5  1  0
  5  4  2  0
  4  3  1  0
  3  2  2  0
  2  1  1  0
  6  2  1  0
  7  6  2  0
 10  6  1  0
 17 13  1  0
 18 17  1  0
M  END
$$$$
