A71EV2A-x3990_A_201_1_A71EV2A-x0911+A+147+1__LIG
     RDKit          3D

 23 24  0  0  0  0  0  0  0  0999 V2000
   11.7190   16.9400   22.9180 F   0  0  0  0  0  0  0  0  0  0  0  0
   12.2480   15.9700   22.1670 C   0  0  0  0  0  0  0  0  0  0  0  0
   12.8880   16.5750   21.1530 F   0  0  0  0  0  0  0  0  0  0  0  0
   13.1820   15.3830   22.9160 F   0  0  0  0  0  0  0  0  0  0  0  0
   11.2140   14.9920   21.6880 C   0  0  2  0  0  0  0  0  0  0  0  0
   10.0870   15.6720   20.8790 C   0  0  1  0  0  0  0  0  0  0  0  0
   10.3670   15.8970   19.4080 C   0  0  0  0  0  0  0  0  0  0  0  0
   10.1340   16.9910   18.8890 O   0  0  0  0  0  0  0  0  0  0  0  0
   10.8570   14.8630   18.7270 N   0  0  0  0  0  0  0  0  0  0  0  0
    8.9020   14.7310   21.0850 C   0  0  0  0  0  0  0  0  0  0  0  0
   10.4920   14.3860   22.8900 C   0  0  0  0  0  0  0  0  0  0  0  0
    9.1160   14.2050   22.4290 N   0  0  0  0  0  0  0  0  0  0  0  0
    8.1180   13.5990   23.0990 C   0  0  0  0  0  0  0  0  0  0  0  0
    7.0690   13.2920   22.5600 O   0  0  0  0  0  0  0  0  0  0  0  0
    8.3810   13.3370   24.5710 C   0  0  0  0  0  0  0  0  0  0  0  0
    7.6040   12.1570   25.1110 C   0  0  0  0  0  0  0  0  0  0  0  0
    7.8420   10.8590   24.6500 C   0  0  0  0  0  0  0  0  0  0  0  0
    8.8060   10.7540   23.6830 O   0  0  0  0  0  0  0  0  0  0  0  0
    9.4440    9.4860   23.4940 C   0  0  0  0  0  0  0  0  0  0  0  0
    6.6440   12.3400   26.1020 C   0  0  0  0  0  0  0  0  0  0  0  0
    5.9360   11.2680   26.6110 C   0  0  0  0  0  0  0  0  0  0  0  0
    6.1700   10.0040   26.1430 C   0  0  0  0  0  0  0  0  0  0  0  0
    7.1260    9.7850   25.1610 C   0  0  0  0  0  0  0  0  0  0  0  0
 19 18  1  0
 18 17  1  0
 17 23  2  0
 23 22  1  0
 22 21  2  0
 21 20  1  0
 20 16  2  0
 17 16  1  0
 16 15  1  0
 15 13  1  0
 14 13  2  0
 13 12  1  0
 12 10  1  0
 10  6  1  0
  6  7  1  6
  9  7  1  0
  8  7  2  0
  6  5  1  0
  5  2  1  1
  3  2  1  0
  4  2  1  0
  2  1  1  0
 11  5  1  0
 12 11  1  0
M  END
$$$$
