XX01ZVNS2B-x5082_B_203_6_XX01ZVNS2B-x4590+B+203+1__LIG
     RDKit          3D

 29 31  0  0  0  0  0  0  0  0999 V2000
   -4.5760    5.3660  -17.9310 F   0  0  0  0  0  0  0  0  0  0  0  0
   -5.2220    6.1350  -17.0840 C   0  0  0  0  0  0  0  0  0  0  0  0
   -4.3650    6.3900  -16.1390 F   0  0  0  0  0  0  0  0  0  0  0  0
   -5.4150    7.2610  -17.7750 F   0  0  0  0  0  0  0  0  0  0  0  0
   -6.5010    5.5240  -16.5890 C   0  0  0  0  0  0  0  0  0  0  0  0
   -7.5070    5.2050  -17.4930 C   0  0  0  0  0  0  0  0  0  0  0  0
   -8.6600    4.5480  -17.0900 C   0  0  0  0  0  0  0  0  0  0  0  0
   -9.7420    4.1900  -18.0820 C   0  0  0  0  0  0  0  0  0  0  0  0
   -6.6500    5.1670  -15.2500 C   0  0  0  0  0  0  0  0  0  0  0  0
   -7.7890    4.4880  -14.8220 C   0  0  0  0  0  0  0  0  0  0  0  0
   -8.7860    4.2070  -15.7490 C   0  0  0  0  0  0  0  0  0  0  0  0
   -7.8890    3.9330  -13.4030 C   0  0  1  0  0  0  0  0  0  0  0  0
   -6.8180    2.8310  -13.2480 C   0  0  0  0  0  0  0  0  0  0  0  0
   -5.6680    3.1990  -12.6690 N   0  0  0  0  0  0  0  0  0  0  0  0
   -4.5280    2.2930  -12.5240 C   0  0  0  0  0  0  0  0  0  0  0  0
   -3.3600    2.6210  -13.5630 C   0  0  0  0  0  0  0  0  0  0  0  0
   -3.8950    2.4760  -14.8030 F   0  0  0  0  0  0  0  0  0  0  0  0
   -3.0110    3.9360  -13.4730 F   0  0  0  0  0  0  0  0  0  0  0  0
   -7.0200    1.7020  -13.6780 O   0  0  0  0  0  0  0  0  0  0  0  0
   -7.8010    4.9340  -12.3630 N   0  0  0  0  0  0  0  0  0  0  0  0
   -8.1460    4.6720  -11.0310 C   0  0  0  0  0  0  0  0  0  0  0  0
   -8.4850    3.3970  -10.5550 C   0  0  0  0  0  0  0  0  0  0  0  0
   -8.6760    3.1910   -9.1830 C   0  0  0  0  0  0  0  0  0  0  0  0
   -9.0560    1.9510   -8.4250 C   0  0  0  0  0  0  0  0  0  0  0  0
   -8.8330    2.3400   -6.9910 N   0  0  0  0  0  0  0  0  0  0  0  0
   -8.8350    3.8090   -6.8960 C   0  0  0  0  0  0  0  0  0  0  0  0
   -8.5500    4.2590   -8.3000 C   0  0  0  0  0  0  0  0  0  0  0  0
   -8.2670    5.5330   -8.7850 C   0  0  0  0  0  0  0  0  0  0  0  0
   -8.0730    5.7380  -10.1410 C   0  0  0  0  0  0  0  0  0  0  0  0
  8  7  1  0
  7 11  1  0
 11 10  2  0
 12 10  1  0
 12 20  1  1
 21 20  1  0
 21 29  2  0
 29 28  1  0
 28 27  2  0
 27 23  1  0
 23 22  2  0
 22 21  1  0
 24 23  1  0
 25 24  1  0
 26 25  1  0
 27 26  1  0
 13 12  1  0
 19 13  2  0
 14 13  1  0
 15 14  1  0
 16 15  1  0
 18 16  1  0
 17 16  1  0
 10  9  1  0
  9  5  2  0
  5  2  1  0
  3  2  1  0
  4  2  1  0
  2  1  1  0
  6  5  1  0
  7  6  2  0
M  END
$$$$
