XX01ZVNS2B-x4886_B_203_6_XX01ZVNS2B-x4590+B+203+1__LIG
     RDKit          3D

 25 28  0  0  0  0  0  0  0  0999 V2000
  -10.4700    3.7880  -18.3070 Cl  0  0  0  0  0  0  0  0  0  0  0  0
   -8.9580    4.2270  -17.5650 C   0  0  0  0  0  0  0  0  0  0  0  0
   -7.8780    4.5130  -18.3810 C   0  0  0  0  0  0  0  0  0  0  0  0
   -6.7160    4.9500  -17.7640 C   0  0  0  0  0  0  0  0  0  0  0  0
   -6.6080    5.1130  -16.3750 C   0  0  0  0  0  0  0  0  0  0  0  0
   -5.2700    5.5400  -16.1690 C   0  0  0  0  0  0  0  0  0  0  0  0
   -4.6110    5.6280  -17.3070 N   0  0  0  0  0  0  0  0  0  0  0  0
   -5.4950    5.2670  -18.2880 N   0  0  0  0  0  0  0  0  0  0  0  0
   -5.0640    5.2360  -19.6880 C   0  0  0  0  0  0  0  0  0  0  0  0
   -3.5740    4.9260  -19.9510 C   0  0  0  0  0  0  0  0  0  0  0  0
   -4.8280    6.5830  -20.4040 C   0  0  0  0  0  0  0  0  0  0  0  0
   -3.6060    5.9810  -20.9910 N   0  0  0  0  0  0  0  0  0  0  0  0
   -8.8930    4.3430  -16.1850 C   0  0  0  0  0  0  0  0  0  0  0  0
   -7.7220    4.8070  -15.5780 C   0  0  0  0  0  0  0  0  0  0  0  0
   -7.6780    5.0580  -14.0980 C   0  0  0  0  0  0  0  0  0  0  0  0
   -7.0260    6.0000  -13.6500 O   0  0  0  0  0  0  0  0  0  0  0  0
   -8.3580    4.1830  -13.3130 N   0  0  0  0  0  0  0  0  0  0  0  0
   -8.4350    4.2010  -11.8920 C   0  0  0  0  0  0  0  0  0  0  0  0
   -8.4590    5.4170  -11.2110 C   0  0  0  0  0  0  0  0  0  0  0  0
   -8.5300    5.4360   -9.8180 C   0  0  0  0  0  0  0  0  0  0  0  0
   -8.6440    6.6960   -9.1270 C   0  0  0  0  0  0  0  0  0  0  0  0
   -8.7570    7.7060   -8.6010 N   0  0  0  0  0  0  0  0  0  0  0  0
   -8.5690    4.2410   -9.1070 C   0  0  0  0  0  0  0  0  0  0  0  0
   -8.5540    3.0350   -9.7880 C   0  0  0  0  0  0  0  0  0  0  0  0
   -8.4850    3.0100  -11.1740 C   0  0  0  0  0  0  0  0  0  0  0  0
 12 10  1  0
 10  9  1  0
  9  8  1  0
  8  7  1  0
  7  6  2  0
  6  5  1  0
  5 14  2  0
 15 14  1  0
 16 15  2  0
 17 15  1  0
 18 17  1  0
 18 25  2  0
 25 24  1  0
 24 23  2  0
 23 20  1  0
 21 20  1  0
 22 21  3  0
 20 19  2  0
 19 18  1  0
 14 13  1  0
 13  2  2  0
  2  1  1  0
  3  2  1  0
  4  3  2  0
  5  4  1  0
  8  4  1  0
 11  9  1  0
 12 11  1  0
M  END
$$$$
