A71EV2A-x3587_A_201_1_A71EV2A-x0911+A+147+1__LIG
     RDKit          3D

 21 22  0  0  0  0  0  0  0  0999 V2000
   10.6910   16.7880   19.2180 O   0  0  0  0  0  0  0  0  0  0  0  0
   10.8870   15.5870   19.4540 C   0  0  0  0  0  0  0  0  0  0  0  0
   11.2350   14.7240   18.5250 N   0  0  0  0  0  0  0  0  0  0  0  0
   10.8140   15.0330   20.8670 C   0  0  1  0  0  0  0  0  0  0  0  0
   11.8280   15.7220   21.7950 C   0  0  0  0  0  0  0  0  0  0  0  0
   11.7580   15.1990   23.2390 C   0  0  0  0  0  0  0  0  0  0  0  0
   10.3220   15.1700   23.7540 C   0  0  0  0  0  0  0  0  0  0  0  0
    9.4180   15.1160   21.4830 C   0  0  0  0  0  0  0  0  0  0  0  0
    9.4320   14.4790   22.8050 N   0  0  0  0  0  0  0  0  0  0  0  0
    8.4180   13.6220   23.1380 C   0  0  0  0  0  0  0  0  0  0  0  0
    7.5970   13.2390   22.3190 O   0  0  0  0  0  0  0  0  0  0  0  0
    8.3320   13.2760   24.4370 N   0  0  0  0  0  0  0  0  0  0  0  0
    7.4630   12.2330   24.8590 C   0  0  0  0  0  0  0  0  0  0  0  0
    6.3640   12.5220   25.6880 C   0  0  0  0  0  0  0  0  0  0  0  0
    6.0510   13.8530   25.8060 O   0  0  0  0  0  0  0  0  0  0  0  0
    4.6710   14.2090   25.7650 C   0  0  0  0  0  0  0  0  0  0  0  0
    7.8020   10.8930   24.6620 C   0  0  0  0  0  0  0  0  0  0  0  0
    9.2140   10.4870   23.7370 Cl  0  0  0  0  0  0  0  0  0  0  0  0
    7.0940    9.8740   25.2610 C   0  0  0  0  0  0  0  0  0  0  0  0
    6.0480   10.1840   26.1120 C   0  0  0  0  0  0  0  0  0  0  0  0
    5.6850   11.5030   26.3360 C   0  0  0  0  0  0  0  0  0  0  0  0
 16 15  1  0
 15 14  1  0
 14 21  2  0
 21 20  1  0
 20 19  2  0
 19 17  1  0
 18 17  1  0
 17 13  2  0
 14 13  1  0
 13 12  1  0
 12 10  1  0
 11 10  2  0
 10  9  1  0
  9  7  1  0
  7  6  1  0
  6  5  1  0
  5  4  1  0
  4  2  1  6
  3  2  1  0
  2  1  2  0
  8  4  1  0
  9  8  1  0
M  END
$$$$
