XX01ZVNS2B-x0846_B_401_1_XX01ZVNS2B-x4590+B+203+1__LIG
     RDKit          3D

 18 20  0  0  0  0  0  0  0  0999 V2000
   -6.1280    7.4260  -24.3630 O   0  0  0  0  0  0  0  0  0  0  0  0
   -5.4650    7.8680  -23.2660 C   0  0  0  0  0  0  0  0  0  0  0  0
   -5.1530    9.2250  -23.1380 C   0  0  0  0  0  0  0  0  0  0  0  0
   -4.4440    9.6350  -22.0120 C   0  0  0  0  0  0  0  0  0  0  0  0
   -4.0640    8.7270  -21.0390 C   0  0  0  0  0  0  0  0  0  0  0  0
   -4.3880    7.3990  -21.1710 C   0  0  0  0  0  0  0  0  0  0  0  0
   -5.0870    6.9630  -22.2810 C   0  0  0  0  0  0  0  0  0  0  0  0
   -5.5980   10.2140  -24.1900 C   0  0  0  0  0  0  0  0  0  0  0  0
   -5.5970    9.6660  -25.5390 N   0  0  0  0  0  0  0  0  0  0  0  0
   -6.7040    9.2490  -26.1650 C   0  0  0  0  0  0  0  0  0  0  0  0
   -6.7130    8.1200  -26.9090 N   0  0  0  0  0  0  0  0  0  0  0  0
   -8.0120    7.9300  -27.3410 C   0  0  0  0  0  0  0  0  0  0  0  0
   -8.7410    8.9990  -26.8230 C   0  0  0  0  0  0  0  0  0  0  0  0
   -7.8930    9.8280  -26.0890 N   0  0  0  0  0  0  0  0  0  0  0  0
   -8.6140    6.9250  -28.0840 C   0  0  0  0  0  0  0  0  0  0  0  0
   -9.9840    7.0010  -28.2920 C   0  0  0  0  0  0  0  0  0  0  0  0
  -10.7270    8.0510  -27.7650 C   0  0  0  0  0  0  0  0  0  0  0  0
  -10.1160    9.0640  -27.0380 C   0  0  0  0  0  0  0  0  0  0  0  0
  2  1  1  0
  2  7  2  0
  7  6  1  0
  6  5  2  0
  5  4  1  0
  4  3  2  0
  3  2  1  0
  8  3  1  0
  9  8  1  0
 10  9  1  0
 10 14  2  0
 14 13  1  0
 13 18  2  0
 18 17  1  0
 17 16  2  0
 16 15  1  0
 15 12  2  0
 13 12  1  0
 12 11  1  0
 11 10  1  0
M  END
$$$$
