XX01ZVNS2B-x4020_B_203_1_XX01ZVNS2B-x4590+B+203+1__LIG
     RDKit          3D

 24 28  0  0  0  0  0  0  0  0999 V2000
   -5.9980    4.3610  -20.7150 O   0  0  0  0  0  0  0  0  0  0  0  0
   -6.4930    4.4880  -19.6060 C   0  0  0  0  0  0  0  0  0  0  0  0
   -7.6750    3.9750  -19.1830 N   0  0  0  0  0  0  0  0  0  0  0  0
   -7.8880    4.2170  -17.8140 C   0  0  0  0  0  0  0  0  0  0  0  0
   -8.9420    3.8200  -17.0000 C   0  0  0  0  0  0  0  0  0  0  0  0
   -8.8550    4.0620  -15.6400 C   0  0  0  0  0  0  0  0  0  0  0  0
   -5.8680    5.1850  -18.4130 C   0  0  0  0  0  0  0  0  0  0  0  0
   -4.3480    5.2770  -18.3010 C   0  0  0  0  0  0  0  0  0  0  0  0
   -5.1290    6.5020  -18.6280 C   0  0  0  0  0  0  0  0  0  0  0  0
   -6.7860    4.8830  -17.2840 C   0  0  0  0  0  0  0  0  0  0  0  0
   -6.7060    5.1220  -15.9220 C   0  0  0  0  0  0  0  0  0  0  0  0
   -7.7380    4.6970  -15.0900 C   0  0  0  0  0  0  0  0  0  0  0  0
   -7.5950    4.8840  -13.6140 C   0  0  0  0  0  0  0  0  0  0  0  0
   -6.7850    5.6880  -13.1570 O   0  0  0  0  0  0  0  0  0  0  0  0
   -8.4050    4.1160  -12.8450 N   0  0  0  0  0  0  0  0  0  0  0  0
   -8.4920    4.1110  -11.4320 C   0  0  0  0  0  0  0  0  0  0  0  0
   -8.7740    2.9220  -10.7670 C   0  0  0  0  0  0  0  0  0  0  0  0
   -8.8810    2.9090   -9.3820 C   0  0  0  0  0  0  0  0  0  0  0  0
   -9.2110    1.7680   -8.4670 C   0  0  0  0  0  0  0  0  0  0  0  0
   -8.9780    2.3630   -7.1530 N   0  0  0  0  0  0  0  0  0  0  0  0
   -8.8670    3.8230   -7.1870 C   0  0  0  0  0  0  0  0  0  0  0  0
   -8.6930    4.0780   -8.6560 C   0  0  0  0  0  0  0  0  0  0  0  0
   -8.4030    5.2620   -9.3220 C   0  0  0  0  0  0  0  0  0  0  0  0
   -8.3070    5.2820  -10.7020 C   0  0  0  0  0  0  0  0  0  0  0  0
 14 13  2  0
 15 13  1  0
 16 15  1  0
 16 24  2  0
 24 23  1  0
 23 22  2  0
 22 18  1  0
 18 17  2  0
 17 16  1  0
 19 18  1  0
 20 19  1  0
 21 20  1  0
 22 21  1  0
 13 12  1  0
 12  6  1  0
  6  5  2  0
  5  4  1  0
  4 10  2  0
 11 10  1  0
 12 11  2  0
 10  7  1  0
  7  9  1  0
  9  8  1  0
  8  7  1  0
  7  2  1  0
  2  1  2  0
  3  2  1  0
  4  3  1  0
M  END
$$$$
