A71EV2A-x4303_C_201_1_A71EV2A-x0911+A+147+1__LIG
     RDKit          3D

 24 25  0  0  0  0  0  0  0  0999 V2000
   10.5480   16.7020   19.2560 O   0  0  0  0  0  0  0  0  0  0  0  0
   10.8630   15.5230   19.4540 C   0  0  0  0  0  0  0  0  0  0  0  0
   11.0810   14.6690   18.4700 N   0  0  0  0  0  0  0  0  0  0  0  0
   10.9600   14.9550   20.8620 C   0  0  1  0  0  0  0  0  0  0  0  0
   12.0720   15.6410   21.6840 C   0  0  0  0  0  0  0  0  0  0  0  0
   12.1530   15.0750   23.1070 C   0  0  0  0  0  0  0  0  0  0  0  0
   10.7920   15.1170   23.8040 C   0  0  0  0  0  0  0  0  0  0  0  0
    9.6370   15.0530   21.6250 C   0  0  0  0  0  0  0  0  0  0  0  0
    9.7590   14.4780   22.9700 N   0  0  0  0  0  0  0  0  0  0  0  0
    8.8390   13.5460   23.3700 C   0  0  0  0  0  0  0  0  0  0  0  0
    7.9930   13.1080   22.6080 O   0  0  0  0  0  0  0  0  0  0  0  0
    8.8880   13.1590   24.6720 N   0  0  0  0  0  0  0  0  0  0  0  0
    8.0240   12.1760   25.2340 C   0  0  0  0  0  0  0  0  0  0  0  0
    8.2010   10.8430   24.8120 C   0  0  0  0  0  0  0  0  0  0  0  0
    9.1590   10.6690   23.8470 O   0  0  0  0  0  0  0  0  0  0  0  0
    9.5360    9.3320   23.5140 C   0  0  0  0  0  0  0  0  0  0  0  0
    7.0440   12.4650   26.1840 C   0  0  0  0  0  0  0  0  0  0  0  0
    6.2660   11.4370   26.7010 C   0  0  0  0  0  0  0  0  0  0  0  0
    4.9980   11.8250   27.8750 S   0  0  0  0  0  0  0  0  0  0  0  0
    4.0190   10.7770   27.8480 O   0  0  0  0  0  0  0  0  0  0  0  0
    4.5520   13.1670   27.6260 O   0  0  0  0  0  0  0  0  0  0  0  0
    5.8120   11.7910   29.4270 C   0  0  0  0  0  0  0  0  0  0  0  0
    6.4430   10.1250   26.2900 C   0  0  0  0  0  0  0  0  0  0  0  0
    7.4110    9.8270   25.3440 C   0  0  0  0  0  0  0  0  0  0  0  0
 16 15  1  0
 15 14  1  0
 14 24  2  0
 24 23  1  0
 23 18  2  0
 19 18  1  0
 22 19  1  0
 20 19  2  0
 21 19  2  0
 18 17  1  0
 17 13  2  0
 14 13  1  0
 13 12  1  0
 12 10  1  0
 11 10  2  0
 10  9  1  0
  9  7  1  0
  7  6  1  0
  6  5  1  0
  5  4  1  0
  4  2  1  6
  3  2  1  0
  2  1  2  0
  8  4  1  0
  9  8  1  0
M  END
$$$$
