XX01ZVNS2B-x3817_B_203_5_XX01ZVNS2B-x4590+B+203+1__LIG
     RDKit          3D

 23 26  0  0  0  0  0  0  0  0999 V2000
   -6.7800    5.3810  -13.2760 O   0  0  0  0  0  0  0  0  0  0  0  0
   -7.6520    4.6450  -13.7360 C   0  0  0  0  0  0  0  0  0  0  0  0
   -7.8650    4.5620  -15.2170 C   0  0  0  0  0  0  0  0  0  0  0  0
   -9.0990    4.2120  -15.7650 C   0  0  0  0  0  0  0  0  0  0  0  0
   -9.2830    4.1630  -17.1440 C   0  0  0  0  0  0  0  0  0  0  0  0
   -8.2440    4.4550  -18.0150 C   0  0  0  0  0  0  0  0  0  0  0  0
   -6.9970    4.8070  -17.5010 C   0  0  0  0  0  0  0  0  0  0  0  0
   -6.8220    4.8570  -16.1050 C   0  0  0  0  0  0  0  0  0  0  0  0
   -5.5150    5.2100  -15.8480 N   0  0  0  0  0  0  0  0  0  0  0  0
   -5.7330    5.1450  -18.0970 C   0  0  0  0  0  0  0  0  0  0  0  0
   -5.4510    5.1650  -19.5700 C   0  0  0  0  0  0  0  0  0  0  0  0
   -4.8650    5.3860  -17.0420 C   0  0  0  0  0  0  0  0  0  0  0  0
   -3.4190    5.7640  -17.0510 C   0  0  0  0  0  0  0  0  0  0  0  0
   -8.4650    3.8800  -12.9640 N   0  0  0  0  0  0  0  0  0  0  0  0
   -8.4990    3.8520  -11.5480 C   0  0  0  0  0  0  0  0  0  0  0  0
   -8.7460    2.6750  -10.8430 C   0  0  0  0  0  0  0  0  0  0  0  0
   -8.8030    2.6910   -9.4510 C   0  0  0  0  0  0  0  0  0  0  0  0
   -9.0930    1.5730   -8.4950 C   0  0  0  0  0  0  0  0  0  0  0  0
   -8.9040    2.2100   -7.1930 N   0  0  0  0  0  0  0  0  0  0  0  0
   -8.7280    3.6580   -7.2830 C   0  0  0  0  0  0  0  0  0  0  0  0
   -8.5950    3.8760   -8.7610 C   0  0  0  0  0  0  0  0  0  0  0  0
   -8.3310    5.0460   -9.4670 C   0  0  0  0  0  0  0  0  0  0  0  0
   -8.2940    5.0370  -10.8480 C   0  0  0  0  0  0  0  0  0  0  0  0
 13 12  1  0
 12  9  1  0
  9  8  1  0
  8  3  1  0
  3  2  1  0
  2  1  2  0
 14  2  1  0
 15 14  1  0
 15 23  2  0
 23 22  1  0
 22 21  2  0
 21 17  1  0
 17 16  2  0
 16 15  1  0
 18 17  1  0
 19 18  1  0
 20 19  1  0
 21 20  1  0
  4  3  2  0
  5  4  1  0
  6  5  2  0
  7  6  1  0
  8  7  2  0
 10  7  1  0
 12 10  2  0
 11 10  1  0
M  END
$$$$
