XX01ZVNS2B-x3466_B_203_1_XX01ZVNS2B-x4590+B+203+1__LIG
     RDKit          3D

 21 24  0  0  0  0  0  0  0  0999 V2000
   -6.6970    5.5610  -13.3410 O   0  0  0  0  0  0  0  0  0  0  0  0
   -7.5350    4.7780  -13.7830 C   0  0  0  0  0  0  0  0  0  0  0  0
   -8.2770    3.9510  -13.0040 N   0  0  0  0  0  0  0  0  0  0  0  0
   -8.4050    3.9330  -11.5890 C   0  0  0  0  0  0  0  0  0  0  0  0
   -8.1830    5.0990  -10.8620 C   0  0  0  0  0  0  0  0  0  0  0  0
   -8.3040    5.0980   -9.4820 C   0  0  0  0  0  0  0  0  0  0  0  0
   -8.5860    3.9040   -8.8300 C   0  0  0  0  0  0  0  0  0  0  0  0
   -8.7990    2.7370   -9.5490 C   0  0  0  0  0  0  0  0  0  0  0  0
   -8.6940    2.7270  -10.9340 C   0  0  0  0  0  0  0  0  0  0  0  0
   -9.1380    1.6290   -8.5930 C   0  0  0  0  0  0  0  0  0  0  0  0
   -8.6310    2.1690   -7.3240 N   0  0  0  0  0  0  0  0  0  0  0  0
   -8.7880    3.6300   -7.3680 C   0  0  0  0  0  0  0  0  0  0  0  0
   -7.7480    4.6670  -15.2630 C   0  0  0  0  0  0  0  0  0  0  0  0
   -8.9910    4.2870  -15.7480 C   0  0  0  0  0  0  0  0  0  0  0  0
   -9.2650    4.1970  -17.0580 N   0  0  0  0  0  0  0  0  0  0  0  0
   -8.2940    4.3790  -17.9530 C   0  0  0  0  0  0  0  0  0  0  0  0
   -7.0090    4.7250  -17.5710 C   0  0  0  0  0  0  0  0  0  0  0  0
   -5.8710    4.9850  -18.2560 N   0  0  0  0  0  0  0  0  0  0  0  0
   -4.8420    5.2630  -17.4060 N   0  0  0  0  0  0  0  0  0  0  0  0
   -5.3300    5.2040  -16.1790 C   0  0  0  0  0  0  0  0  0  0  0  0
   -6.7050    4.8710  -16.2060 C   0  0  0  0  0  0  0  0  0  0  0  0
  1  2  2  0
  2  3  1  0
  3  4  1  0
  4  5  2  0
  5  6  1  0
  6  7  2  0
  7  8  1  0
  8  9  2  0
  8 10  1  0
 10 11  1  0
 11 12  1  0
  2 13  1  0
 13 14  2  0
 14 15  1  0
 15 16  2  0
 16 17  1  0
 17 18  1  0
 18 19  1  0
 19 20  2  0
 20 21  1  0
  4  9  1  0
 13 21  1  0
  7 12  1  0
 17 21  2  0
M  END
$$$$
