XX01ZVNS2B-x5061_B_203_5_XX01ZVNS2B-x4590+B+203+1__LIG
     RDKit          3D

 25 28  0  0  0  0  0  0  0  0999 V2000
  -10.4370    3.8000  -18.2020 Cl  0  0  0  0  0  0  0  0  0  0  0  0
   -8.9200    4.1710  -17.4230 C   0  0  0  0  0  0  0  0  0  0  0  0
   -8.8690    4.2560  -16.0360 C   0  0  0  0  0  0  0  0  0  0  0  0
   -7.8260    4.4460  -18.2200 C   0  0  0  0  0  0  0  0  0  0  0  0
   -6.6620    4.8480  -17.5870 C   0  0  0  0  0  0  0  0  0  0  0  0
   -5.4360    5.1590  -18.0970 N   0  0  0  0  0  0  0  0  0  0  0  0
   -5.0150    5.1500  -19.4990 C   0  0  0  0  0  0  0  0  0  0  0  0
   -3.5310    4.9020  -19.8430 C   0  0  0  0  0  0  0  0  0  0  0  0
   -3.6710    5.9520  -20.8770 N   0  0  0  0  0  0  0  0  0  0  0  0
   -4.8730    6.5110  -20.2100 C   0  0  0  0  0  0  0  0  0  0  0  0
   -4.5540    5.4900  -17.1050 N   0  0  0  0  0  0  0  0  0  0  0  0
   -5.2190    5.3920  -15.9710 C   0  0  0  0  0  0  0  0  0  0  0  0
   -6.5600    4.9840  -16.1920 C   0  0  0  0  0  0  0  0  0  0  0  0
   -7.6890    4.6810  -15.4060 C   0  0  0  0  0  0  0  0  0  0  0  0
   -7.6210    4.9400  -13.9270 C   0  0  0  0  0  0  0  0  0  0  0  0
   -6.8810    5.8210  -13.4940 O   0  0  0  0  0  0  0  0  0  0  0  0
   -8.3790    4.1580  -13.1120 N   0  0  0  0  0  0  0  0  0  0  0  0
   -8.4440    4.2220  -11.7040 C   0  0  0  0  0  0  0  0  0  0  0  0
   -8.1450    5.4220  -11.1820 N   0  0  0  0  0  0  0  0  0  0  0  0
   -8.1350    5.5320   -9.8440 C   0  0  0  0  0  0  0  0  0  0  0  0
   -8.7520    3.1190  -10.9020 C   0  0  0  0  0  0  0  0  0  0  0  0
   -8.7650    3.2550   -9.5150 C   0  0  0  0  0  0  0  0  0  0  0  0
   -9.2050    2.1020   -8.6440 C   0  0  0  0  0  0  0  0  0  0  0  0
   -8.4290    4.5030   -8.9600 C   0  0  0  0  0  0  0  0  0  0  0  0
   -8.3970    4.7210   -7.4670 C   0  0  0  0  0  0  0  0  0  0  0  0
 25 24  1  0
 24 20  1  0
 20 19  2  0
 19 18  1  0
 18 17  1  0
 17 15  1  0
 16 15  2  0
 15 14  1  0
 14  3  1  0
  3  2  2  0
  2  1  1  0
  4  2  1  0
  5  4  2  0
  5 13  1  0
 14 13  2  0
 13 12  1  0
 12 11  2  0
 11  6  1  0
  6  5  1  0
  7  6  1  0
  7 10  1  0
 10  9  1  0
  9  8  1  0
  8  7  1  0
 21 18  2  0
 22 21  1  0
 24 22  2  0
 23 22  1  0
M  END
$$$$
