XX01ZVNS2B-x0773_B_401_1_XX01ZVNS2B-x0773+B+401+1__LIG
     RDKit          3D

 14 15  0  0  0  0  0  0  0  0999 V2000
  -23.1360    3.3800    2.7760 O   0  0  0  0  0  0  0  0  0  0  0  0
  -23.2960    3.5030    1.3550 S   0  0  0  0  0  0  0  0  0  0  0  0
  -23.9620    2.4370    0.6520 O   0  0  0  0  0  0  0  0  0  0  0  0
  -24.1380    4.9970    1.0150 C   0  0  0  0  0  0  0  0  0  0  0  0
  -21.6830    3.6830    0.6400 C   0  0  0  0  0  0  0  0  0  0  0  0
  -21.1610    4.9710    0.3410 C   0  0  0  0  0  0  0  0  0  0  0  0
  -21.9410    6.0750    0.5340 N   0  0  0  0  0  0  0  0  0  0  0  0
  -21.4030    7.2490    0.2690 C   0  0  0  0  0  0  0  0  0  0  0  0
  -20.1080    7.4300   -0.1790 C   0  0  0  0  0  0  0  0  0  0  0  0
  -19.3240    6.3370   -0.3870 C   0  0  0  0  0  0  0  0  0  0  0  0
  -19.8290    5.0500   -0.1310 C   0  0  0  0  0  0  0  0  0  0  0  0
  -19.0720    3.8640   -0.2770 C   0  0  0  0  0  0  0  0  0  0  0  0
  -19.6160    2.6510    0.0290 C   0  0  0  0  0  0  0  0  0  0  0  0
  -20.9270    2.5560    0.4660 C   0  0  0  0  0  0  0  0  0  0  0  0
  4  2  1  0
  3  2  2  0
  2  1  2  0
  5  2  1  0
  5 14  2  0
 14 13  1  0
 13 12  2  0
 12 11  1  0
 11 10  2  0
 10  9  1  0
  9  8  2  0
  8  7  1  0
  7  6  2  0
  6  5  1  0
 11  6  1  0
M  END
$$$$
