A71EV2A-x3986_C_201_1_A71EV2A-x0911+A+147+1__LIG
     RDKit          3D

 25 27  0  0  0  0  0  0  0  0999 V2000
    7.4380   13.4590   22.5480 O   0  0  0  0  0  0  0  0  0  0  0  0
    8.2600   13.9750   23.3040 C   0  0  0  0  0  0  0  0  0  0  0  0
    9.0790   14.9810   22.9120 N   0  0  0  0  0  0  0  0  0  0  0  0
   10.0330   15.7360   23.7460 C   0  0  0  0  0  0  0  0  0  0  0  0
   11.4690   15.4980   23.3040 C   0  0  0  0  0  0  0  0  0  0  0  0
   11.6460   15.8120   21.8160 C   0  0  0  0  0  0  0  0  0  0  0  0
    9.1330   15.3680   21.5030 C   0  0  0  0  0  0  0  0  0  0  0  0
   10.5450   15.1430   20.9690 C   0  0  1  0  0  0  0  0  0  0  0  0
   10.5670   15.6170   19.5280 C   0  0  0  0  0  0  0  0  0  0  0  0
   10.2430   16.7830   19.2310 O   0  0  0  0  0  0  0  0  0  0  0  0
   10.8850   14.6880   18.6300 N   0  0  0  0  0  0  0  0  0  0  0  0
    8.5860   13.4040   24.6780 C   0  0  2  0  0  0  0  0  0  0  0  0
    8.6710   11.9060   24.4950 C   0  0  0  0  0  0  0  0  0  0  0  0
    7.7680   11.0540   25.1050 C   0  0  0  0  0  0  0  0  0  0  0  0
    7.8850    9.6860   24.9520 C   0  0  0  0  0  0  0  0  0  0  0  0
    8.8920    9.1590   24.1800 C   0  0  0  0  0  0  0  0  0  0  0  0
    9.7870    9.9880   23.5660 C   0  0  0  0  0  0  0  0  0  0  0  0
    9.6810   11.3570   23.7210 C   0  0  0  0  0  0  0  0  0  0  0  0
    7.6610   13.9590   26.1680 S   0  0  0  0  0  0  0  0  0  0  0  0
    6.1120   14.5220   25.5160 C   0  0  0  0  0  0  0  0  0  0  0  0
    5.7430   15.8290   25.7940 C   0  0  0  0  0  0  0  0  0  0  0  0
    4.4130   16.2070   25.7040 C   0  0  0  0  0  0  0  0  0  0  0  0
    3.4570   15.2960   25.3090 C   0  0  0  0  0  0  0  0  0  0  0  0
    3.8280   14.0110   24.9840 C   0  0  0  0  0  0  0  0  0  0  0  0
    5.1570   13.6230   25.0700 C   0  0  0  0  0  0  0  0  0  0  0  0
 11  9  1  0
 10  9  2  0
  8  9  1  6
  8  6  1  0
  6  5  1  0
  5  4  1  0
  4  3  1  0
  3  2  1  0
  2  1  2  0
 12  2  1  0
 12 19  1  1
 20 19  1  0
 20 25  2  0
 25 24  1  0
 24 23  2  0
 23 22  1  0
 22 21  2  0
 21 20  1  0
 13 12  1  0
 13 18  2  0
 18 17  1  0
 17 16  2  0
 16 15  1  0
 15 14  2  0
 14 13  1  0
  7  3  1  0
  8  7  1  0
M  END
$$$$
