XX01ZVNS2B-x3813_B_203_5_XX01ZVNS2B-x4590+B+203+1__LIG
     RDKit          3D

 22 24  0  0  0  0  0  0  0  0999 V2000
   -3.7970    5.0910  -18.5530 O   0  0  0  0  0  0  0  0  0  0  0  0
   -4.9550    5.0130  -18.1560 C   0  0  0  0  0  0  0  0  0  0  0  0
   -6.0310    4.6890  -18.9220 N   0  0  0  0  0  0  0  0  0  0  0  0
   -7.1910    4.5700  -18.1560 C   0  0  0  0  0  0  0  0  0  0  0  0
   -8.4630    4.1660  -18.5440 C   0  0  0  0  0  0  0  0  0  0  0  0
   -9.4300    3.9820  -17.5670 C   0  0  0  0  0  0  0  0  0  0  0  0
   -9.1380    4.2010  -16.2270 C   0  0  0  0  0  0  0  0  0  0  0  0
   -5.4420    5.1940  -16.7350 C   0  0  0  0  0  0  0  0  0  0  0  0
   -6.8900    4.8180  -16.8220 C   0  0  0  0  0  0  0  0  0  0  0  0
   -7.8710    4.6360  -15.8420 C   0  0  0  0  0  0  0  0  0  0  0  0
   -7.5870    4.9120  -14.3960 C   0  0  0  0  0  0  0  0  0  0  0  0
   -6.7460    5.7450  -14.0620 O   0  0  0  0  0  0  0  0  0  0  0  0
   -8.3380    4.2180  -13.5100 N   0  0  0  0  0  0  0  0  0  0  0  0
   -8.3320    4.3730  -12.1070 C   0  0  0  0  0  0  0  0  0  0  0  0
   -7.9800    5.6070  -11.5710 C   0  0  0  0  0  0  0  0  0  0  0  0
   -8.0090    5.8230  -10.2030 C   0  0  0  0  0  0  0  0  0  0  0  0
   -7.6490    7.1720   -9.6300 C   0  0  0  0  0  0  0  0  0  0  0  0
   -8.7180    3.3440  -11.2630 C   0  0  0  0  0  0  0  0  0  0  0  0
   -8.7790    3.5410   -9.8910 C   0  0  0  0  0  0  0  0  0  0  0  0
   -8.4030    4.7760   -9.3770 C   0  0  0  0  0  0  0  0  0  0  0  0
   -9.3490    2.4730   -8.9940 C   0  0  0  0  0  0  0  0  0  0  0  0
   -8.2980    1.5970   -8.4850 N   0  0  0  0  0  0  0  0  0  0  0  0
 17 16  1  0
 16 20  2  0
 20 19  1  0
 21 19  1  0
 22 21  1  0
 19 18  2  0
 18 14  1  0
 14 13  1  0
 13 11  1  0
 12 11  2  0
 11 10  1  0
 10  7  2  0
  7  6  1  0
  6  5  2  0
  5  4  1  0
  4  9  2  0
 10  9  1  0
  9  8  1  0
  8  2  1  0
  2  1  2  0
  3  2  1  0
  4  3  1  0
 15 14  2  0
 16 15  1  0
M  END
$$$$
