XX01ZVNS2B-x1098_B_301_1_XX01ZVNS2B-x4590+B+203+1__LIG
     RDKit          3D

 19 20  0  0  0  0  0  0  0  0999 V2000
   -5.6740    6.5870  -16.5850 F   0  0  0  0  0  0  0  0  0  0  0  0
   -5.7030    5.2690  -16.7810 C   0  0  0  0  0  0  0  0  0  0  0  0
   -4.8480    5.0350  -17.7880 F   0  0  0  0  0  0  0  0  0  0  0  0
   -5.1520    4.7060  -15.7060 F   0  0  0  0  0  0  0  0  0  0  0  0
   -7.0900    4.7570  -17.0670 C   0  0  0  0  0  0  0  0  0  0  0  0
   -7.4240    4.5000  -18.3880 C   0  0  0  0  0  0  0  0  0  0  0  0
   -8.6800    4.0200  -18.7200 C   0  0  0  0  0  0  0  0  0  0  0  0
   -9.6070    3.7740  -17.7410 C   0  0  0  0  0  0  0  0  0  0  0  0
   -9.2960    4.0090  -16.4150 C   0  0  0  0  0  0  0  0  0  0  0  0
   -8.0510    4.5230  -16.0680 C   0  0  0  0  0  0  0  0  0  0  0  0
   -7.8610    4.9470  -14.6390 C   0  0  0  0  0  0  0  0  0  0  0  0
   -7.3470    6.0250  -14.3500 O   0  0  0  0  0  0  0  0  0  0  0  0
   -8.3450    4.0870  -13.6840 N   0  0  0  0  0  0  0  0  0  0  0  0
   -8.2610    4.4220  -12.3200 C   0  0  0  0  0  0  0  0  0  0  0  0
   -8.0470    3.6510  -11.2140 C   0  0  0  0  0  0  0  0  0  0  0  0
   -8.3460    5.7300  -11.8390 C   0  0  0  0  0  0  0  0  0  0  0  0
   -8.1810    5.7780  -10.5300 N   0  0  0  0  0  0  0  0  0  0  0  0
   -7.9820    4.4910  -10.1680 N   0  0  0  0  0  0  0  0  0  0  0  0
   -7.6270    4.1690   -8.7930 C   0  0  0  0  0  0  0  0  0  0  0  0
 19 18  1  0
 18 15  1  0
 15 14  2  0
 14 13  1  0
 13 11  1  0
 12 11  2  0
 11 10  1  0
 10  9  2  0
  9  8  1  0
  8  7  2  0
  7  6  1  0
  6  5  2  0
 10  5  1  0
  5  2  1  0
  3  2  1  0
  4  2  1  0
  2  1  1  0
 16 14  1  0
 17 16  2  0
 18 17  1  0
M  END
$$$$
