A71EV2A-x2629_D_246_1_A71EV2A-x0911+A+147+1__LIG
     RDKit          3D

 18 19  0  0  0  0  0  0  0  0999 V2000
   10.8550   14.7860   22.6500 O   0  0  0  0  0  0  0  0  0  0  0  0
   11.2280   13.7550   22.0930 C   0  0  0  0  0  0  0  0  0  0  0  0
   10.8670   12.4920   22.4900 N   0  0  0  0  0  0  0  0  0  0  0  0
   10.0260   12.1360   23.5760 C   0  0  0  0  0  0  0  0  0  0  0  0
    9.5550   13.0330   24.5360 C   0  0  0  0  0  0  0  0  0  0  0  0
    8.6490   12.6020   25.4940 C   0  0  0  0  0  0  0  0  0  0  0  0
    8.2270   11.2840   25.5220 C   0  0  0  0  0  0  0  0  0  0  0  0
    8.7110   10.3700   24.5960 C   0  0  0  0  0  0  0  0  0  0  0  0
    9.5980   10.7960   23.6170 C   0  0  0  0  0  0  0  0  0  0  0  0
   10.0640   10.0240   22.5870 O   0  0  0  0  0  0  0  0  0  0  0  0
    9.9530    8.6030   22.6960 C   0  0  0  0  0  0  0  0  0  0  0  0
   12.0490   13.7430   20.9940 N   0  0  0  0  0  0  0  0  0  0  0  0
   12.6170   14.8630   20.3470 C   0  0  0  0  0  0  0  0  0  0  0  0
   13.1490   15.9090   21.1000 C   0  0  0  0  0  0  0  0  0  0  0  0
   13.7860   16.9540   20.5640 N   0  0  0  0  0  0  0  0  0  0  0  0
   13.9050   16.9850   19.2320 C   0  0  0  0  0  0  0  0  0  0  0  0
   13.4010   16.0070   18.3990 C   0  0  0  0  0  0  0  0  0  0  0  0
   12.7440   14.9290   18.9670 C   0  0  0  0  0  0  0  0  0  0  0  0
 11 10  1  0
 10  9  1  0
  9  8  1  0
  8  7  2  0
  7  6  1  0
  6  5  2  0
  5  4  1  0
  9  4  2  0
  4  3  1  0
  3  2  1  0
  2  1  2  0
 12  2  1  0
 13 12  1  0
 13 18  2  0
 18 17  1  0
 17 16  2  0
 16 15  1  0
 15 14  2  0
 14 13  1  0
M  END
$$$$
