A71EV2A-x4826_A_201_1_A71EV2A-x0911+A+147+1__LIG
     RDKit          3D

 20 21  0  0  0  0  0  0  0  0999 V2000
   10.2830   16.6780   19.2260 O   0  0  0  0  0  0  0  0  0  0  0  0
   10.6090   15.5140   19.4740 C   0  0  0  0  0  0  0  0  0  0  0  0
   10.9600   14.6490   18.5310 N   0  0  0  0  0  0  0  0  0  0  0  0
   10.5870   14.9770   20.8980 C   0  0  1  0  0  0  0  0  0  0  0  0
   11.6910   15.5990   21.7650 C   0  0  0  0  0  0  0  0  0  0  0  0
   11.6570   15.0110   23.1830 C   0  0  0  0  0  0  0  0  0  0  0  0
   10.2790   15.2120   23.8080 C   0  0  0  0  0  0  0  0  0  0  0  0
    9.2210   15.2420   21.5480 C   0  0  0  0  0  0  0  0  0  0  0  0
    9.2050   14.7250   22.9230 N   0  0  0  0  0  0  0  0  0  0  0  0
    8.3100   13.7460   23.2390 C   0  0  0  0  0  0  0  0  0  0  0  0
    7.5310   13.2990   22.4130 O   0  0  0  0  0  0  0  0  0  0  0  0
    8.3080   13.3230   24.5290 N   0  0  0  0  0  0  0  0  0  0  0  0
    7.4960   12.2510   24.9660 C   0  0  0  0  0  0  0  0  0  0  0  0
    7.7990   10.9440   24.5720 C   0  0  0  0  0  0  0  0  0  0  0  0
    9.2080   10.6650   23.5350 S   0  0  0  0  0  0  0  0  0  0  0  0
    9.2360    8.8760   23.3320 C   0  0  0  0  0  0  0  0  0  0  0  0
    6.4240   12.4360   25.8340 C   0  0  0  0  0  0  0  0  0  0  0  0
    5.6890   11.4310   26.3290 N   0  0  0  0  0  0  0  0  0  0  0  0
    6.0040   10.1880   25.9330 C   0  0  0  0  0  0  0  0  0  0  0  0
    7.0370    9.8870   25.0590 C   0  0  0  0  0  0  0  0  0  0  0  0
 16 15  1  0
 15 14  1  0
 14 20  2  0
 20 19  1  0
 19 18  2  0
 18 17  1  0
 17 13  2  0
 14 13  1  0
 13 12  1  0
 12 10  1  0
 11 10  2  0
 10  9  1  0
  9  7  1  0
  7  6  1  0
  6  5  1  0
  5  4  1  0
  4  2  1  6
  3  2  1  0
  2  1  2  0
  8  4  1  0
  9  8  1  0
M  END
$$$$
