A71EV2A-x4791_A_201_1_A71EV2A-x0911+A+147+1__LIG
     RDKit          3D

 21 23  0  0  0  0  0  0  0  0999 V2000
    2.4710   14.6310   23.1660 O   0  0  0  0  0  0  0  0  0  0  0  0
    3.6560   14.8130   23.4470 C   0  0  0  0  0  0  0  0  0  0  0  0
    4.5860   15.2640   22.6060 N   0  0  0  0  0  0  0  0  0  0  0  0
    5.9010   15.4360   23.1980 C   0  0  0  0  0  0  0  0  0  0  0  0
    5.8070   14.6180   24.4830 C   0  0  2  0  0  0  0  0  0  0  0  0
    4.2940   14.5840   24.8040 C   0  0  1  0  0  0  0  0  0  0  0  0
    3.8550   15.6260   25.8400 C   0  0  0  0  0  0  0  0  0  0  0  0
    4.9020   15.8220   26.9240 C   0  0  0  0  0  0  0  0  0  0  0  0
    6.2440   16.1900   26.3210 C   0  0  0  0  0  0  0  0  0  0  0  0
    6.7560   15.0850   25.5150 N   0  0  0  0  0  0  0  0  0  0  0  0
    7.9370   14.4750   25.7720 C   0  0  0  0  0  0  0  0  0  0  0  0
    8.7550   14.9600   26.5170 O   0  0  0  0  0  0  0  0  0  0  0  0
    8.2770   13.1950   25.0410 C   0  0  0  0  0  0  0  0  0  0  0  0
    7.5080   11.9810   25.5140 C   0  0  0  0  0  0  0  0  0  0  0  0
    7.7960   10.7290   24.9690 C   0  0  0  0  0  0  0  0  0  0  0  0
    9.1470   10.7040   23.8320 S   0  0  0  0  0  0  0  0  0  0  0  0
    9.1940    8.9940   23.3490 C   0  0  0  0  0  0  0  0  0  0  0  0
    6.4970   12.0600   26.4700 C   0  0  0  0  0  0  0  0  0  0  0  0
    5.7870   10.9310   26.8510 C   0  0  0  0  0  0  0  0  0  0  0  0
    6.0570    9.7220   26.2780 C   0  0  0  0  0  0  0  0  0  0  0  0
    7.0590    9.6060   25.3330 C   0  0  0  0  0  0  0  0  0  0  0  0
 17 16  1  0
 16 15  1  0
 15 21  2  0
 21 20  1  0
 20 19  2  0
 19 18  1  0
 18 14  2  0
 15 14  1  0
 14 13  1  0
 13 11  1  0
 12 11  2  0
 11 10  1  0
 10  9  1  0
  9  8  1  0
  8  7  1  0
  6  7  1  1
  6  2  1  0
  2  1  2  0
  3  2  1  0
  4  3  1  0
  5  4  1  6
  6  5  1  0
 10  5  1  0
M  END
$$$$
