A71EV2A-x4954_A_201_1_A71EV2A-x0911+A+147+1__LIG
     RDKit          3D

 18 19  0  0  0  0  0  0  0  0999 V2000
   11.2410   14.6450   25.0230 O   0  0  0  0  0  0  0  0  0  0  0  0
   11.1550   14.7090   23.8040 C   0  0  0  0  0  0  0  0  0  0  0  0
   12.3800   14.9550   22.9630 C   0  0  0  0  0  0  0  0  0  0  0  0
   12.1180   15.4870   21.5480 C   0  0  0  0  0  0  0  0  0  0  0  0
   10.9630   14.7290   20.8910 C   0  0  2  0  0  0  0  0  0  0  0  0
   10.6860   15.2330   19.4840 C   0  0  0  0  0  0  0  0  0  0  0  0
   10.1760   16.3450   19.2920 O   0  0  0  0  0  0  0  0  0  0  0  0
   11.0710   14.4380   18.5000 N   0  0  0  0  0  0  0  0  0  0  0  0
    9.7030   14.9040   21.7480 C   0  0  0  0  0  0  0  0  0  0  0  0
    9.9700   14.5860   23.1570 N   0  0  0  0  0  0  0  0  0  0  0  0
    8.7680   14.3430   23.9290 C   0  0  0  0  0  0  0  0  0  0  0  0
    8.5070   12.8810   24.1600 C   0  0  0  0  0  0  0  0  0  0  0  0
    9.5320   11.6700   23.4890 S   0  0  0  0  0  0  0  0  0  0  0  0
    8.6380   10.4160   24.2440 C   0  0  0  0  0  0  0  0  0  0  0  0
    7.6020   10.9040   24.9700 C   0  0  0  0  0  0  0  0  0  0  0  0
    7.5230   12.3270   24.9150 C   0  0  0  0  0  0  0  0  0  0  0  0
    6.4650   13.1620   25.5840 C   0  0  0  0  0  0  0  0  0  0  0  0
    5.9990   12.6390   26.9180 C   0  0  0  0  0  0  0  0  0  0  0  0
 18 17  1  0
 17 16  1  0
 16 15  1  0
 15 14  2  0
 14 13  1  0
 13 12  1  0
 16 12  2  0
 12 11  1  0
 11 10  1  0
 10  9  1  0
  9  5  1  0
  5  6  1  6
  8  6  1  0
  7  6  2  0
  5  4  1  0
  4  3  1  0
  3  2  1  0
 10  2  1  0
  2  1  2  0
M  END
$$$$
