A71EV2A-x3616_A_201_1_A71EV2A-x0911+A+147+1__LIG
     RDKit          3D

 20 21  0  0  0  0  0  0  0  0999 V2000
   10.3020   16.8140   19.0580 O   0  0  0  0  0  0  0  0  0  0  0  0
   10.5710   15.6450   19.3640 C   0  0  0  0  0  0  0  0  0  0  0  0
   10.8120   14.6990   18.4630 N   0  0  0  0  0  0  0  0  0  0  0  0
   10.5960   15.1990   20.8140 C   0  0  1  0  0  0  0  0  0  0  0  0
   11.9660   15.4370   21.4570 C   0  0  0  0  0  0  0  0  0  0  0  0
   11.9480   15.0270   22.9290 C   0  0  0  0  0  0  0  0  0  0  0  0
   10.7760   15.6730   23.6800 C   0  0  0  0  0  0  0  0  0  0  0  0
    9.5130   15.9500   21.5880 C   0  0  0  0  0  0  0  0  0  0  0  0
    9.4890   15.4850   22.9800 N   0  0  0  0  0  0  0  0  0  0  0  0
    8.4510   14.6770   23.3760 C   0  0  0  0  0  0  0  0  0  0  0  0
    7.5740   14.3120   22.5950 O   0  0  0  0  0  0  0  0  0  0  0  0
    8.4360   14.3330   24.6710 N   0  0  0  0  0  0  0  0  0  0  0  0
    7.4930   13.3350   25.1640 C   0  0  0  0  0  0  0  0  0  0  0  0
    7.8130   11.9080   24.7570 C   0  0  0  0  0  0  0  0  0  0  0  0
    6.9950   10.8690   25.2230 C   0  0  0  0  0  0  0  0  0  0  0  0
    5.8740   11.1100   26.2010 C   0  0  0  0  0  0  0  0  0  0  0  0
    8.8890   11.6010   23.9260 C   0  0  0  0  0  0  0  0  0  0  0  0
    9.1430   10.2950   23.5410 C   0  0  0  0  0  0  0  0  0  0  0  0
    8.3060    9.2890   23.9430 C   0  0  0  0  0  0  0  0  0  0  0  0
    7.2500    9.5710   24.7810 C   0  0  0  0  0  0  0  0  0  0  0  0
 16 15  1  0
 15 20  2  0
 20 19  1  0
 19 18  2  0
 18 17  1  0
 17 14  2  0
 15 14  1  0
 14 13  1  0
 13 12  1  0
 12 10  1  0
 11 10  2  0
 10  9  1  0
  9  7  1  0
  7  6  1  0
  6  5  1  0
  5  4  1  0
  4  2  1  6
  3  2  1  0
  2  1  2  0
  8  4  1  0
  9  8  1  0
M  END
$$$$
