A71EV2A-x5082_A_201_2_A71EV2A-x0911+A+147+1__LIG
     RDKit          3D

 20 21  0  0  0  0  0  0  0  0999 V2000
   10.2930   16.7920   19.0760 O   0  0  0  0  0  0  0  0  0  0  0  0
   10.6150   15.6280   19.3580 C   0  0  0  0  0  0  0  0  0  0  0  0
   10.8940   14.7080   18.4400 N   0  0  0  0  0  0  0  0  0  0  0  0
   10.6880   15.1580   20.7990 C   0  0  1  0  0  0  0  0  0  0  0  0
   11.8630   15.8080   21.5500 C   0  0  0  0  0  0  0  0  0  0  0  0
   11.9210   15.3250   23.0040 C   0  0  0  0  0  0  0  0  0  0  0  0
   10.5870   15.5290   23.6940 C   0  0  0  0  0  0  0  0  0  0  0  0
    9.3840   15.4590   21.5300 C   0  0  0  0  0  0  0  0  0  0  0  0
    9.4930   14.9540   22.8990 N   0  0  0  0  0  0  0  0  0  0  0  0
    8.7310   13.9190   23.2970 C   0  0  0  0  0  0  0  0  0  0  0  0
    7.8630   13.4470   22.5860 O   0  0  0  0  0  0  0  0  0  0  0  0
    8.9640   13.4140   24.7090 C   0  0  0  0  0  0  0  0  0  0  0  0
    8.3390   12.0610   24.9230 C   0  0  0  0  0  0  0  0  0  0  0  0
    7.2250   11.8770   25.7200 C   0  0  0  0  0  0  0  0  0  0  0  0
    6.6780   10.6090   25.8130 C   0  0  0  0  0  0  0  0  0  0  0  0
    7.2690    9.5690   25.1180 C   0  0  0  0  0  0  0  0  0  0  0  0
    8.9470   11.0630   24.2700 N   0  0  0  0  0  0  0  0  0  0  0  0
    8.4230    9.8360   24.3970 C   0  0  0  0  0  0  0  0  0  0  0  0
    9.2280    8.7630   23.8570 C   0  0  0  0  0  0  0  0  0  0  0  0
    9.8860    7.9420   23.4140 N   0  0  0  0  0  0  0  0  0  0  0  0
 20 19  3  0
 19 18  1  0
 18 16  2  0
 16 15  1  0
 15 14  2  0
 14 13  1  0
 13 12  1  0
 12 10  1  0
 11 10  2  0
 10  9  1  0
  9  7  1  0
  7  6  1  0
  6  5  1  0
  5  4  1  0
  4  2  1  6
  3  2  1  0
  2  1  2  0
  8  4  1  0
  9  8  1  0
 17 13  2  0
 18 17  1  0
M  END
$$$$
