XX01ZVNS2B-x4858_B_203_7_XX01ZVNS2B-x4590+B+203+1__LIG
     RDKit          3D

 29 33  0  0  0  0  0  0  0  0999 V2000
  -10.5160    4.1100  -18.1780 Cl  0  0  0  0  0  0  0  0  0  0  0  0
   -8.9680    4.5120  -17.4880 C   0  0  0  0  0  0  0  0  0  0  0  0
   -7.8980    4.7000  -18.3390 C   0  0  0  0  0  0  0  0  0  0  0  0
   -6.6980    5.0960  -17.7730 C   0  0  0  0  0  0  0  0  0  0  0  0
   -6.5370    5.2960  -16.3940 C   0  0  0  0  0  0  0  0  0  0  0  0
   -5.1760    5.6640  -16.2430 C   0  0  0  0  0  0  0  0  0  0  0  0
   -4.5530    5.6960  -17.4040 N   0  0  0  0  0  0  0  0  0  0  0  0
   -5.4840    5.3530  -18.3450 N   0  0  0  0  0  0  0  0  0  0  0  0
   -5.1150    5.3260  -19.7620 C   0  0  0  0  0  0  0  0  0  0  0  0
   -3.6110    5.2180  -20.0950 C   0  0  0  0  0  0  0  0  0  0  0  0
   -5.0810    6.6900  -20.4810 C   0  0  0  0  0  0  0  0  0  0  0  0
   -3.8270    6.2490  -21.1340 N   0  0  0  0  0  0  0  0  0  0  0  0
   -8.8650    4.6900  -16.1160 C   0  0  0  0  0  0  0  0  0  0  0  0
   -7.6500    5.1020  -15.5580 C   0  0  0  0  0  0  0  0  0  0  0  0
   -7.5420    5.4470  -14.0990 C   0  0  0  0  0  0  0  0  0  0  0  0
   -6.6360    6.1720  -13.6960 O   0  0  0  0  0  0  0  0  0  0  0  0
   -8.5060    4.9650  -13.2810 N   0  0  0  0  0  0  0  0  0  0  0  0
   -8.6250    5.2690  -11.9000 C   0  0  0  0  0  0  0  0  0  0  0  0
   -8.7080    4.2530  -10.9530 C   0  0  0  0  0  0  0  0  0  0  0  0
   -8.7260    4.5570   -9.5860 C   0  0  0  0  0  0  0  0  0  0  0  0
   -8.6460    5.8930   -9.1830 C   0  0  0  0  0  0  0  0  0  0  0  0
   -8.6080    6.8660  -10.1510 C   0  0  0  0  0  0  0  0  0  0  0  0
   -8.6880    8.1650   -9.7550 F   0  0  0  0  0  0  0  0  0  0  0  0
   -8.5860    6.6010  -11.4970 C   0  0  0  0  0  0  0  0  0  0  0  0
   -8.8840    3.5470   -8.6430 N   0  0  0  0  0  0  0  0  0  0  0  0
   -8.8260    3.7630   -7.1970 C   0  0  0  0  0  0  0  0  0  0  0  0
   -8.6900    2.3630   -6.6440 C   0  0  0  0  0  0  0  0  0  0  0  0
   -9.3980    1.4930   -7.6490 C   0  0  0  0  0  0  0  0  0  0  0  0
   -9.1400    2.1490   -8.9850 C   0  0  0  0  0  0  0  0  0  0  0  0
 12 10  1  0
 10  9  1  0
  9  8  1  0
  8  7  1  0
  7  6  2  0
  6  5  1  0
  5 14  2  0
 15 14  1  0
 16 15  2  0
 17 15  1  0
 18 17  1  0
 18 24  2  0
 24 22  1  0
 23 22  1  0
 22 21  2  0
 21 20  1  0
 25 20  1  0
 25 29  1  0
 29 28  1  0
 28 27  1  0
 27 26  1  0
 26 25  1  0
 20 19  2  0
 19 18  1  0
 14 13  1  0
 13  2  2  0
  2  1  1  0
  3  2  1  0
  4  3  2  0
  5  4  1  0
  8  4  1  0
 11  9  1  0
 12 11  1  0
M  END
$$$$
