A71EV2A-x4203_A_201_1_A71EV2A-x0911+A+147+1__LIG
     RDKit          3D

 21 22  0  0  0  0  0  0  0  0999 V2000
   10.3810   16.6610   19.1510 O   0  0  0  0  0  0  0  0  0  0  0  0
   10.7580   15.5090   19.3780 C   0  0  0  0  0  0  0  0  0  0  0  0
   11.0800   14.6580   18.4190 N   0  0  0  0  0  0  0  0  0  0  0  0
   10.8760   14.9860   20.8010 C   0  0  1  0  0  0  0  0  0  0  0  0
   12.0450   15.6480   21.5470 C   0  0  0  0  0  0  0  0  0  0  0  0
   12.1830   15.1170   22.9770 C   0  0  0  0  0  0  0  0  0  0  0  0
   10.8740   15.2470   23.7300 C   0  0  0  0  0  0  0  0  0  0  0  0
    9.6010   15.1840   21.6240 C   0  0  0  0  0  0  0  0  0  0  0  0
    9.7860   14.6190   22.9640 N   0  0  0  0  0  0  0  0  0  0  0  0
    9.0090   13.6070   23.3970 C   0  0  0  0  0  0  0  0  0  0  0  0
    8.0980   13.1560   22.7210 O   0  0  0  0  0  0  0  0  0  0  0  0
    9.3180   13.0580   24.7780 C   0  0  0  0  0  0  0  0  0  0  0  0
    8.2640   12.0890   25.2630 C   0  0  0  0  0  0  0  0  0  0  0  0
    8.2730   10.7490   24.8600 C   0  0  0  0  0  0  0  0  0  0  0  0
    9.2450   10.4230   23.9520 O   0  0  0  0  0  0  0  0  0  0  0  0
    9.3660    9.0580   23.5610 C   0  0  0  0  0  0  0  0  0  0  0  0
    7.2780   12.5020   26.1520 C   0  0  0  0  0  0  0  0  0  0  0  0
    6.3200   11.6280   26.6210 C   0  0  0  0  0  0  0  0  0  0  0  0
    6.3440   10.3280   26.1970 C   0  0  0  0  0  0  0  0  0  0  0  0
    5.0190    9.2820   26.6110 Cl  0  0  0  0  0  0  0  0  0  0  0  0
    7.3240    9.8580   25.3440 C   0  0  0  0  0  0  0  0  0  0  0  0
 16 15  1  0
 15 14  1  0
 14 21  2  0
 21 19  1  0
 20 19  1  0
 19 18  2  0
 18 17  1  0
 17 13  2  0
 14 13  1  0
 13 12  1  0
 12 10  1  0
 11 10  2  0
 10  9  1  0
  9  7  1  0
  7  6  1  0
  6  5  1  0
  5  4  1  0
  4  2  1  6
  3  2  1  0
  2  1  2  0
  8  4  1  0
  9  8  1  0
M  END
$$$$
